xflr5 v6.47

C:/Users/miksw/Documents/XFLR5/NACA 0012.dat
Reynolds = 9000000   Mach =    0  NCrit = 9.0
Alpha,Cd,Cl,Cm,XTr1,XTr2,TEHMom,Cpmn
 24.000       0.151     1.410    -0.025     0.005     1.000    0.0000  -14.4691
 Cpi          Cpv
-----------------
 0.5240   -0.3340
 0.4667   -0.3342
 0.4066   -0.3346
 0.3568   -0.3353
 0.3122   -0.3362
 0.2717   -0.3375
 0.2322   -0.3390
 0.1941   -0.3408
 0.1571   -0.3428
 0.1202   -0.3452
 0.0835   -0.3479
 0.0467   -0.3508
 0.0101   -0.3541
-0.0273   -0.3577
-0.0651   -0.3616
-0.1034   -0.3658
-0.1425   -0.3704
-0.1826   -0.3753
-0.2234   -0.3807
-0.2658   -0.3864
-0.3092   -0.3925
-0.3543   -0.3991
-0.4007   -0.4061
-0.4495   -0.4136
-0.5000   -0.4216
-0.5530   -0.4302
-0.6083   -0.4394
-0.6669   -0.4493
-0.7282   -0.4598
-0.7930   -0.4712
-0.8617   -0.4834
-0.9343   -0.4965
-1.0116   -0.5106
-1.0939   -0.5259
-1.1815   -0.5425
-1.2752   -0.5605
-1.3755   -0.5802
-1.4830   -0.6017
-1.5990   -0.6253
-1.7239   -0.6513
-1.8589   -0.6800
-2.0051   -0.7118
-2.1642   -0.7471
-2.3389   -0.7863
-2.5291   -0.8296
-2.7400   -0.8775
-2.9731   -0.9296
-3.2338   -0.9854
-3.5267   -1.0416
-3.8575   -1.0972
-4.2357   -1.3492
-4.6737   -1.6999
-5.1824   -2.0820
-5.7837   -2.4898
-6.5036   -2.9390
-7.3750   -3.4505
-8.4501   -4.0519
-9.7951   -4.7759
-11.5050   -5.6652
-13.7051   -6.7704
-16.5432   -8.1405
-20.1706   -9.8302
-24.4983   -12.3334
-28.8631   -13.7152
-31.2515   -14.4691
-29.5589   -13.1679
-24.4058   -10.2744
-17.5464   -6.8029
-11.4712   -3.9161
-7.1230   -1.9539
-4.2435   -0.7229
-2.3887    0.0231
-1.1907    0.4691
-0.4111    0.7316
 0.1007    0.8807
 0.4388    0.9594
 0.6617    0.9936
 0.8073    0.9994
 0.9000    0.9871
 0.9560    0.9634
 0.9864    0.9324
 0.9988    0.8971
 0.9985    0.8594
 0.9893    0.8207
 0.9738    0.7818
 0.9540    0.7433
 0.9315    0.7057
 0.9072    0.6690
 0.8819    0.6337
 0.8561    0.5997
 0.8304    0.5670
 0.8049    0.5356
 0.7800    0.5055
 0.7557    0.4767
 0.7321    0.4489
 0.7094    0.4223
 0.6874    0.3966
 0.6663    0.3718
 0.6461    0.3478
 0.6266    0.3246
 0.6080    0.3019
 0.5901    0.2798
 0.5730    0.2581
 0.5566    0.2368
 0.5410    0.2159
 0.5259    0.1951
 0.5116    0.1747
 0.4979    0.1543
 0.4850    0.1342
 0.4725    0.1140
 0.4610    0.0940
 0.4500    0.0740
 0.4398    0.0541
 0.4303    0.0340
 0.4216    0.0140
 0.4138   -0.0059
 0.4068   -0.0260
 0.4009   -0.0461
 0.3960   -0.0661
 0.3921   -0.0865
 0.3897   -0.1064
 0.3887   -0.1265
 0.3893   -0.1463
 0.3917   -0.1661
 0.3967   -0.1851
 0.4049   -0.2029
 0.4160   -0.2204
 0.4332   -0.2353
 0.4578   -0.2516
 0.4940   -0.2878
 0.5240   -0.3340


Reynolds = 9000000   Mach =    0  NCrit = 9.0
Alpha,Cd,Cl,Cm,XTr1,XTr2,TEHMom,Cpmn
 23.500       0.118     1.562    -0.005     0.005     1.000    0.0000  -16.2863
 Cpi          Cpv
-----------------
 0.5203   -0.2755
 0.4629   -0.2757
 0.4026   -0.2762
 0.3528   -0.2769
 0.3082   -0.2780
 0.2677   -0.2794
 0.2283   -0.2811
 0.1904   -0.2832
 0.1535   -0.2855
 0.1168   -0.2882
 0.0805   -0.2912
 0.0438   -0.2946
 0.0075   -0.2983
-0.0295   -0.3024
-0.0669   -0.3069
-0.1048   -0.3117
-0.1436   -0.3170
-0.1832   -0.3227
-0.2235   -0.3289
-0.2654   -0.3355
-0.3082   -0.3427
-0.3528   -0.3504
-0.3985   -0.3587
-0.4467   -0.3675
-0.4964   -0.3771
-0.5487   -0.3874
-0.6031   -0.3984
-0.6608   -0.4103
-0.7210   -0.4231
-0.7848   -0.4369
-0.8524   -0.4518
-0.9237   -0.4679
-0.9996   -0.4854
-1.0805   -0.5043
-1.1665   -0.5248
-1.2584   -0.5471
-1.3568   -0.5713
-1.4622   -0.5976
-1.5758   -0.6260
-1.6981   -0.6569
-1.8302   -0.6902
-1.9731   -0.7258
-2.1287   -0.7633
-2.2993   -0.8016
-2.4851   -0.8344
-2.6909   -0.8815
-2.9181   -1.0521
-3.1722   -1.2823
-3.4574   -1.5377
-3.7793   -1.8067
-4.1472   -2.0919
-4.5728   -2.4014
-5.0668   -2.7440
-5.6504   -3.1327
-6.3485   -3.5828
-7.1929   -4.1125
-8.2337   -4.7496
-9.5346   -5.5281
-11.1867   -6.4946
-13.3098   -7.7049
-16.0445   -9.2139
-19.5332   -11.0853
-23.6835   -13.8288
-27.8476   -15.4290
-30.0807   -16.2863
-28.3705   -14.8735
-23.3437   -11.6837
-16.7105   -7.8290
-10.8630   -4.6058
-6.6926   -2.4038
-3.9400   -1.0134
-2.1729   -0.1644
-1.0360    0.3492
-0.2995    0.6562
 0.1815    0.8355
 0.4970    0.9349
 0.7031    0.9835
 0.8361    0.9996
 0.9191    0.9947
 0.9676    0.9762
 0.9921    0.9491
 0.9999    0.9167
 0.9960    0.8812
 0.9839    0.8440
 0.9661    0.8064
 0.9446    0.7688
 0.9206    0.7319
 0.8952    0.6959
 0.8691    0.6610
 0.8427    0.6274
 0.8164    0.5950
 0.7907    0.5640
 0.7655    0.5342
 0.7411    0.5057
 0.7174    0.4783
 0.6947    0.4520
 0.6728    0.4267
 0.6518    0.4023
 0.6317    0.3787
 0.6125    0.3559
 0.5940    0.3337
 0.5764    0.3122
 0.5595    0.2911
 0.5433    0.2703
 0.5279    0.2501
 0.5131    0.2300
 0.4991    0.2103
 0.4857    0.1907
 0.4731    0.1714
 0.4610    0.1520
 0.4497    0.1330
 0.4390    0.1138
 0.4292    0.0949
 0.4199    0.0757
 0.4116    0.0568
 0.4042    0.0378
 0.3975    0.0187
 0.3919   -0.0003
 0.3874   -0.0193
 0.3838   -0.0387
 0.3818   -0.0576
 0.3811   -0.0767
 0.3821   -0.0956
 0.3849   -0.1145
 0.3903   -0.1327
 0.3988   -0.1499
 0.4103   -0.1669
 0.4279   -0.1814
 0.4531   -0.1970
 0.4897   -0.2311
 0.5203   -0.2755


Reynolds = 9000000   Mach =    0  NCrit = 9.0
Alpha,Cd,Cl,Cm,XTr1,XTr2,TEHMom,Cpmn
 23.000       0.093     1.678     0.009     0.005     1.000    0.0000  -17.4536
 Cpi          Cpv
-----------------
 0.5167   -0.2292
 0.4592   -0.2294
 0.3987   -0.2299
 0.3488   -0.2307
 0.3042   -0.2320
 0.2639   -0.2335
 0.2246   -0.2354
 0.1868   -0.2377
 0.1501   -0.2403
 0.1136   -0.2433
 0.0775   -0.2467
 0.0411   -0.2505
 0.0051   -0.2547
-0.0316   -0.2593
-0.0686   -0.2643
-0.1061   -0.2698
-0.1445   -0.2758
-0.1837   -0.2822
-0.2235   -0.2892
-0.2648   -0.2968
-0.3071   -0.3049
-0.3511   -0.3137
-0.3962   -0.3231
-0.4436   -0.3333
-0.4926   -0.3442
-0.5441   -0.3560
-0.5977   -0.3686
-0.6544   -0.3822
-0.7137   -0.3968
-0.7764   -0.4125
-0.8428   -0.4294
-0.9129   -0.4475
-0.9874   -0.4669
-1.0668   -0.4878
-1.1512   -0.5100
-1.2414   -0.5338
-1.3377   -0.5590
-1.4410   -0.5853
-1.5523   -0.6126
-1.6719   -0.6398
-1.8011   -0.6616
-1.9409   -0.6845
-2.0929   -0.7909
-2.2595   -0.9438
-2.4408   -1.1226
-2.6415   -1.3148
-2.8630   -1.5161
-3.1104   -1.7280
-3.3880   -1.9539
-3.7011   -2.1985
-4.0586   -2.4679
-4.4720   -2.7701
-4.9515   -3.1125
-5.5174   -3.5076
-6.1940   -3.9708
-7.0115   -4.5208
-8.0183   -5.1867
-9.2756   -6.0046
-10.8706   -7.0237
-12.9177   -8.3040
-15.5505   -9.9040
-18.9025   -11.8931
-22.8782   -14.7909
-26.8453   -16.5311
-28.9270   -17.4536
-27.2012   -15.9675
-22.3006   -12.5862
-15.8912   -8.4852
-10.2683   -5.0466
-6.2728   -2.6913
-3.6448   -1.1994
-1.9638   -0.2848
-0.8867    0.2716
-0.1922    0.6068
 0.2586    0.8052
 0.5520    0.9176
 0.7419    0.9753
 0.8625    0.9979
 0.9361    0.9976
 0.9774    0.9825
 0.9963    0.9579
 0.9997    0.9273
 0.9923    0.8933
 0.9774    0.8572
 0.9575    0.8204
 0.9343    0.7835
 0.9090    0.7472
 0.8825    0.7116
 0.8556    0.6773
 0.8286    0.6440
 0.8020    0.6120
 0.7759    0.5813
 0.7505    0.5519
 0.7260    0.5238
 0.7024    0.4968
 0.6797    0.4709
 0.6579    0.4460
 0.6370    0.4220
 0.6171    0.3989
 0.5981    0.3766
 0.5798    0.3549
 0.5624    0.3339
 0.5458    0.3134
 0.5299    0.2932
 0.5148    0.2737
 0.5003    0.2543
 0.4866    0.2353
 0.4735    0.2164
 0.4612    0.1979
 0.4493    0.1793
 0.4384    0.1611
 0.4280    0.1427
 0.4185    0.1247
 0.4096    0.1065
 0.4016    0.0884
 0.3945    0.0704
 0.3882    0.0523
 0.3829    0.0342
 0.3788    0.0162
 0.3755   -0.0022
 0.3739   -0.0202
 0.3735   -0.0384
 0.3749   -0.0564
 0.3781   -0.0745
 0.3839   -0.0919
 0.3928   -0.1085
 0.4047   -0.1249
 0.4228   -0.1390
 0.4484   -0.1541
 0.4856   -0.1863
 0.5167   -0.2292


Reynolds = 9000000   Mach =    0  NCrit = 9.0
Alpha,Cd,Cl,Cm,XTr1,XTr2,TEHMom,Cpmn
 22.500       0.074     1.763     0.018     0.005     1.000    0.0000  -18.1247
 Cpi          Cpv
-----------------
 0.5131   -0.1910
 0.4555   -0.1912
 0.3949   -0.1918
 0.3450   -0.1927
 0.3004   -0.1940
 0.2601   -0.1957
 0.2209   -0.1978
 0.1833   -0.2003
 0.1468   -0.2031
 0.1106   -0.2064
 0.0747   -0.2101
 0.0386   -0.2142
 0.0029   -0.2188
-0.0335   -0.2238
-0.0702   -0.2293
-0.1073   -0.2352
-0.1452   -0.2417
-0.1839   -0.2488
-0.2232   -0.2564
-0.2641   -0.2646
-0.3057   -0.2734
-0.3491   -0.2829
-0.3936   -0.2932
-0.4403   -0.3041
-0.4886   -0.3158
-0.5392   -0.3284
-0.5920   -0.3418
-0.6478   -0.3562
-0.7061   -0.3715
-0.7677   -0.3877
-0.8330   -0.4050
-0.9018   -0.4232
-0.9750   -0.4422
-1.0529   -0.4621
-1.1356   -0.4824
-1.2240   -0.5027
-1.3184   -0.5203
-1.4196   -0.5226
-1.5285   -0.5809
-1.6455   -0.6767
-1.7719   -0.7995
-1.9085   -0.9390
-2.0569   -1.0885
-2.2195   -1.2453
-2.3962   -1.4090
-2.5919   -1.5819
-2.8076   -1.7660
-3.0485   -1.9647
-3.3184   -2.1814
-3.6228   -2.4203
-3.9700   -2.6872
-4.3713   -2.9898
-4.8363   -3.3351
-5.3848   -3.7362
-6.0399   -4.2085
-6.8309   -4.7713
-7.8042   -5.4547
-9.0184   -6.2957
-10.5569   -7.3455
-12.5290   -8.6658
-15.0612   -10.3174
-18.2786   -12.3726
-22.0827   -15.3567
-25.8566   -17.1715
-27.7906   -18.1247
-26.0515   -16.5886
-21.2769   -13.0923
-15.0888   -8.8487
-9.6873   -5.2879
-5.8637   -2.8469
-3.3580   -1.2991
-1.7614   -0.3488
-0.7428    0.2306
-0.0894    0.5808
 0.3320    0.7892
 0.6040    0.9083
 0.7780    0.9707
 0.8866    0.9965
 0.9511    0.9986
 0.9854    0.9852
 0.9989    0.9619
 0.9980    0.9323
 0.9873    0.8990
 0.9698    0.8635
 0.9479    0.8273
 0.9231    0.7908
 0.8966    0.7549
 0.8691    0.7197
 0.8415    0.6857
 0.8140    0.6528
 0.7870    0.6212
 0.7607    0.5909
 0.7352    0.5619
 0.7106    0.5341
 0.6870    0.5075
 0.6644    0.4820
 0.6427    0.4576
 0.6220    0.4341
 0.6023    0.4115
 0.5835    0.3897
 0.5655    0.3686
 0.5483    0.3481
 0.5320    0.3282
 0.5163    0.3087
 0.5016    0.2898
 0.4874    0.2711
 0.4740    0.2528
 0.4611    0.2346
 0.4492    0.2169
 0.4377    0.1991
 0.4271    0.1816
 0.4170    0.1642
 0.4079    0.1470
 0.3993    0.1296
 0.3916    0.1125
 0.3849    0.0954
 0.3789    0.0782
 0.3740    0.0610
 0.3702    0.0439
 0.3673    0.0265
 0.3660    0.0094
 0.3660   -0.0079
 0.3678   -0.0251
 0.3713   -0.0423
 0.3775   -0.0590
 0.3868   -0.0749
 0.3991   -0.0907
 0.4176   -0.1045
 0.4437   -0.1190
 0.4815   -0.1497
 0.5131   -0.1910


Reynolds = 9000000   Mach =    0  NCrit = 9.0
Alpha,Cd,Cl,Cm,XTr1,XTr2,TEHMom,Cpmn
 22.000       0.061     1.811     0.025     0.005     1.000    0.0000  -18.3328
 Cpi          Cpv
-----------------
 0.5096   -0.1592
 0.4520   -0.1594
 0.3912   -0.1600
 0.3412   -0.1610
 0.2966   -0.1624
 0.2565   -0.1642
 0.2174   -0.1663
 0.1799   -0.1689
 0.1436   -0.1719
 0.1076   -0.1754
 0.0720   -0.1792
 0.0362   -0.1835
 0.0008   -0.1883
-0.0352   -0.1935
-0.0715   -0.1993
-0.1082   -0.2055
-0.1457   -0.2123
-0.1840   -0.2196
-0.2228   -0.2275
-0.2631   -0.2360
-0.3042   -0.2451
-0.3470   -0.2549
-0.3908   -0.2653
-0.4368   -0.2765
-0.4843   -0.2884
-0.5342   -0.3010
-0.5861   -0.3143
-0.6410   -0.3284
-0.6983   -0.3432
-0.7588   -0.3585
-0.8229   -0.3744
-0.8905   -0.3905
-0.9623   -0.4061
-1.0387   -0.4183
-1.1197   -0.4192
-1.2064   -0.4656
-1.2989   -0.5391
-1.3979   -0.6337
-1.5044   -0.7432
-1.6189   -0.8624
-1.7423   -0.9881
-1.8757   -1.1195
-2.0206   -1.2569
-2.1792   -1.4016
-2.3515   -1.5547
-2.5421   -1.7190
-2.7521   -1.8962
-2.9864   -2.0896
-3.2488   -2.3023
-3.5444   -2.5384
-3.8815   -2.8035
-4.2707   -3.1053
-4.7214   -3.4508
-5.2526   -3.8530
-5.8865   -4.3274
-6.6512   -4.8937
-7.5913   -5.5819
-8.7629   -6.4295
-10.2457   -7.4880
-12.1438   -8.8195
-14.5769   -10.4846
-17.6617   -12.5557
-21.2972   -15.5609
-24.8818   -17.3853
-26.6719   -18.3328
-24.9216   -16.7641
-20.2729   -13.2209
-14.3035   -8.9306
-9.1200   -5.3353
-5.4654   -2.8730
-3.0797   -1.3130
-1.5657   -0.3560
-0.6043    0.2270
 0.0089    0.5792
 0.4016    0.7885
 0.6528    0.9081
 0.8113    0.9707
 0.9085    0.9965
 0.9642    0.9986
 0.9917    0.9851
 1.0000    0.9618
 0.9950    0.9322
 0.9811    0.8989
 0.9612    0.8635
 0.9373    0.8273
 0.9110    0.7911
 0.8833    0.7553
 0.8550    0.7204
 0.8268    0.6866
 0.7988    0.6540
 0.7715    0.6227
 0.7450    0.5927
 0.7194    0.5641
 0.6948    0.5367
 0.6713    0.5105
 0.6487    0.4855
 0.6273    0.4615
 0.6067    0.4385
 0.5872    0.4164
 0.5687    0.3951
 0.5509    0.3746
 0.5341    0.3547
 0.5180    0.3353
 0.5027    0.3165
 0.4882    0.2982
 0.4743    0.2801
 0.4613    0.2625
 0.4488    0.2451
 0.4371    0.2281
 0.4260    0.2110
 0.4157    0.1944
 0.4060    0.1778
 0.3972    0.1614
 0.3889    0.1449
 0.3817    0.1287
 0.3752    0.1125
 0.3696    0.0962
 0.3651    0.0800
 0.3616    0.0639
 0.3591    0.0474
 0.3582    0.0312
 0.3586    0.0149
 0.3607   -0.0013
 0.3647   -0.0176
 0.3712   -0.0334
 0.3809   -0.0485
 0.3937   -0.0636
 0.4126   -0.0767
 0.4391   -0.0905
 0.4775   -0.1196
 0.5096   -0.1592


Reynolds = 9000000   Mach =    0  NCrit = 9.0
Alpha,Cd,Cl,Cm,XTr1,XTr2,TEHMom,Cpmn
 21.500       0.051     1.842     0.029     0.005     1.000    0.0000  -18.3219
 Cpi          Cpv
-----------------
 0.5062   -0.1301
 0.4485   -0.1304
 0.3876   -0.1310
 0.3375   -0.1320
 0.2930   -0.1334
 0.2529   -0.1352
 0.2140   -0.1374
 0.1766   -0.1401
 0.1406   -0.1432
 0.1048   -0.1467
 0.0694   -0.1506
 0.0339   -0.1550
-0.0011   -0.1598
-0.0368   -0.1651
-0.0727   -0.1709
-0.1090   -0.1772
-0.1461   -0.1841
-0.1839   -0.1914
-0.2222   -0.1993
-0.2619   -0.2078
-0.3025   -0.2168
-0.3446   -0.2265
-0.3878   -0.2367
-0.4331   -0.2474
-0.4799   -0.2587
-0.5289   -0.2706
-0.5799   -0.2829
-0.6339   -0.2955
-0.6902   -0.3082
-0.7496   -0.3203
-0.8125   -0.3291
-0.8789   -0.3274
-0.9493   -0.3624
-1.0242   -0.4176
-1.1036   -0.4899
-1.1885   -0.5754
-1.2790   -0.6705
-1.3759   -0.7722
-1.4801   -0.8793
-1.5919   -0.9910
-1.7125   -1.1077
-1.8427   -1.2302
-1.9841   -1.3597
-2.1387   -1.4976
-2.3065   -1.6449
-2.4921   -1.8043
-2.6963   -1.9773
-2.9241   -2.1672
-3.1791   -2.3769
-3.4660   -2.6104
-3.7930   -2.8733
-4.1703   -3.1731
-4.6067   -3.5169
-5.1208   -3.9176
-5.7337   -4.3907
-6.4724   -4.9557
-7.3797   -5.6427
-8.5092   -6.4889
-9.9370   -7.5456
-11.7621   -8.8744
-14.0976   -10.5349
-17.0521   -12.5981
-20.5219   -15.5934
-23.9211   -17.3973
-25.5713   -18.3219
-23.8120   -16.7289
-19.2889   -13.1713
-13.5356   -8.8798
-8.5667   -5.2915
-5.0781   -2.8383
-2.8100   -1.2867
-1.3769   -0.3366
-0.4714    0.2410
 0.1027    0.5890
 0.4675    0.7951
 0.6984    0.9122
 0.8420    0.9729
 0.9280    0.9972
 0.9752    0.9981
 0.9962    0.9838
 0.9995    0.9598
 0.9907    0.9298
 0.9738    0.8962
 0.9515    0.8606
 0.9258    0.8244
 0.8981    0.7881
 0.8694    0.7525
 0.8403    0.7177
 0.8114    0.6841
 0.7831    0.6518
 0.7555    0.6208
 0.7288    0.5912
 0.7032    0.5629
 0.6787    0.5359
 0.6552    0.5102
 0.6328    0.4856
 0.6115    0.4621
 0.5912    0.4396
 0.5720    0.4180
 0.5537    0.3973
 0.5362    0.3773
 0.5197    0.3580
 0.5039    0.3392
 0.4889    0.3210
 0.4748    0.3033
 0.4612    0.2859
 0.4485    0.2690
 0.4364    0.2523
 0.4251    0.2361
 0.4142    0.2198
 0.4043    0.2039
 0.3949    0.1881
 0.3865    0.1726
 0.3786    0.1570
 0.3717    0.1416
 0.3656    0.1263
 0.3604    0.1110
 0.3562    0.0957
 0.3531    0.0806
 0.3509    0.0651
 0.3504    0.0499
 0.3512    0.0346
 0.3537    0.0193
 0.3580    0.0040
 0.3650   -0.0109
 0.3751   -0.0251
 0.3882   -0.0393
 0.4076   -0.0517
 0.4346   -0.0648
 0.4735   -0.0924
 0.5062   -0.1301


Reynolds = 9000000   Mach =    0  NCrit = 9.0
Alpha,Cd,Cl,Cm,XTr1,XTr2,TEHMom,Cpmn
 21.000       0.043     1.859     0.031     0.005     1.000    0.0000  -18.1331
 Cpi          Cpv
-----------------
 0.5028   -0.1030
 0.4450   -0.1032
 0.3840   -0.1038
 0.3339   -0.1048
 0.2894   -0.1062
 0.2494   -0.1081
 0.2106   -0.1103
 0.1735   -0.1129
 0.1376   -0.1160
 0.1021   -0.1195
 0.0670   -0.1234
 0.0318   -0.1278
-0.0029   -0.1326
-0.0382   -0.1378
-0.0738   -0.1435
-0.1096   -0.1497
-0.1462   -0.1563
-0.1836   -0.1635
-0.2214   -0.1711
-0.2606   -0.1792
-0.3005   -0.1877
-0.3421   -0.1967
-0.3845   -0.2061
-0.4292   -0.2159
-0.4752   -0.2260
-0.5234   -0.2361
-0.5735   -0.2456
-0.6266   -0.2527
-0.6819   -0.2497
-0.7402   -0.2716
-0.8020   -0.3116
-0.8670   -0.3657
-0.9360   -0.4317
-1.0095   -0.5071
-1.0873   -0.5894
-1.1703   -0.6770
-1.2589   -0.7690
-1.3536   -0.8650
-1.4555   -0.9654
-1.5648   -1.0705
-1.6825   -1.1811
-1.8095   -1.2981
-1.9473   -1.4226
-2.0979   -1.5561
-2.2613   -1.6995
-2.4419   -1.8553
-2.6405   -2.0249
-2.8618   -2.2116
-3.1093   -2.4183
-3.3877   -2.6487
-3.7046   -2.9085
-4.0701   -3.2051
-4.4924   -3.5453
-4.9895   -3.9421
-5.5817   -4.4108
-6.2947   -4.9705
-7.1696   -5.6511
-8.2574   -6.4893
-9.6310   -7.5356
-11.3842   -8.8504
-13.6236   -10.4915
-16.4499   -12.5273
-19.7572   -15.4867
-22.9749   -17.2460
-24.4890   -18.1331
-22.7230   -16.5224
-18.3252   -12.9766
-12.7853   -8.7208
-8.0275   -5.1734
-4.7018   -2.7541
-2.5489   -1.2277
-1.1949   -0.2956
-0.3439    0.2692
 0.1920    0.6080
 0.5297    0.8074
 0.7409    0.9196
 0.8700    0.9766
 0.9451    0.9983
 0.9842    0.9971
 0.9990    0.9813
 0.9975    0.9562
 0.9850    0.9253
 0.9652    0.8912
 0.9407    0.8553
 0.9133    0.8188
 0.8843    0.7825
 0.8546    0.7468
 0.8248    0.7121
 0.7954    0.6788
 0.7667    0.6467
 0.7389    0.6159
 0.7122    0.5866
 0.6866    0.5587
 0.6621    0.5322
 0.6388    0.5069
 0.6166    0.4827
 0.5955    0.4597
 0.5755    0.4377
 0.5565    0.4167
 0.5385    0.3965
 0.5214    0.3770
 0.5052    0.3583
 0.4897    0.3402
 0.4750    0.3226
 0.4613    0.3056
 0.4481    0.2888
 0.4357    0.2726
 0.4239    0.2566
 0.4129    0.2411
 0.4025    0.2256
 0.3929    0.2105
 0.3839    0.1955
 0.3758    0.1808
 0.3683    0.1661
 0.3618    0.1516
 0.3560    0.1372
 0.3512    0.1228
 0.3473    0.1085
 0.3447    0.0944
 0.3429    0.0799
 0.3427    0.0657
 0.3439    0.0514
 0.3468    0.0372
 0.3515    0.0229
 0.3588    0.0091
 0.3693   -0.0042
 0.3829   -0.0175
 0.4027   -0.0290
 0.4302   -0.0413
 0.4696   -0.0673
 0.5028   -0.1030


Reynolds = 9000000   Mach =    0  NCrit = 9.0
Alpha,Cd,Cl,Cm,XTr1,XTr2,TEHMom,Cpmn
 20.500       0.037     1.864     0.032     0.005     1.000    0.0000  -17.8123
 Cpi          Cpv
-----------------
 0.4995   -0.0773
 0.4417   -0.0775
 0.3806   -0.0781
 0.3304   -0.0791
 0.2860   -0.0805
 0.2461   -0.0823
 0.2074   -0.0845
 0.1705   -0.0870
 0.1349   -0.0900
 0.0996   -0.0934
 0.0648   -0.0972
 0.0299   -0.1014
-0.0045   -0.1060
-0.0395   -0.1111
-0.0746   -0.1165
-0.1101   -0.1224
-0.1462   -0.1286
-0.1831   -0.1353
-0.2204   -0.1424
-0.2590   -0.1498
-0.2984   -0.1575
-0.3393   -0.1655
-0.3811   -0.1735
-0.4250   -0.1812
-0.4703   -0.1873
-0.5177   -0.1873
-0.5669   -0.1936
-0.6190   -0.2214
-0.6733   -0.2607
-0.7305   -0.3105
-0.7911   -0.3692
-0.8549   -0.4351
-0.9226   -0.5067
-0.9945   -0.5828
-1.0706   -0.6626
-1.1519   -0.7460
-1.2386   -0.8330
-1.3312   -0.9239
-1.4307   -1.0194
-1.5373   -1.1200
-1.6522   -1.2264
-1.7760   -1.3395
-1.9103   -1.4604
-2.0570   -1.5906
-2.2160   -1.7306
-2.3915   -1.8832
-2.5845   -2.0497
-2.7994   -2.2331
-3.0395   -2.4364
-3.3094   -2.6631
-3.6163   -2.9189
-3.9700   -3.2111
-4.3784   -3.5463
-4.8587   -3.9374
-5.4304   -4.3992
-6.1179   -4.9506
-6.9608   -5.6209
-8.0076   -6.4461
-9.3277   -7.4754
-11.0101   -8.7678
-13.1549   -10.3784
-15.8553   -12.3724
-19.0032   -15.2763
-22.0434   -16.9734
-23.4255   -17.8123
-21.6549   -16.1888
-17.3820   -12.6744
-12.0529   -8.4820
-7.5026   -5.0004
-4.3367   -2.6334
-2.2966   -1.1448
-1.0198   -0.2389
-0.2221    0.3075
 0.2767    0.6334
 0.5880    0.8236
 0.7802    0.9291
 0.8953    0.9813
 0.9600    0.9993
 0.9912    0.9954
 1.0000    0.9776
 0.9939    0.9511
 0.9779    0.9191
 0.9554    0.8842
 0.9288    0.8478
 0.8998    0.8110
 0.8696    0.7745
 0.8391    0.7389
 0.8086    0.7042
 0.7788    0.6710
 0.7499    0.6391
 0.7219    0.6087
 0.6951    0.5797
 0.6696    0.5522
 0.6452    0.5261
 0.6221    0.5012
 0.6001    0.4775
 0.5793    0.4550
 0.5595    0.4335
 0.5408    0.4130
 0.5231    0.3934
 0.5063    0.3745
 0.4905    0.3564
 0.4754    0.3388
 0.4611    0.3218
 0.4476    0.3055
 0.4348    0.2894
 0.4228    0.2738
 0.4114    0.2586
 0.4008    0.2438
 0.3907    0.2290
 0.3815    0.2147
 0.3729    0.2005
 0.3652    0.1866
 0.3580    0.1727
 0.3518    0.1592
 0.3465    0.1457
 0.3420    0.1323
 0.3385    0.1190
 0.3362    0.1058
 0.3348    0.0923
 0.3350    0.0792
 0.3366    0.0660
 0.3399    0.0529
 0.3450    0.0397
 0.3527    0.0269
 0.3637    0.0148
 0.3776    0.0025
 0.3979   -0.0081
 0.4258   -0.0194
 0.4657   -0.0438
 0.4995   -0.0773


Reynolds = 9000000   Mach =    0  NCrit = 9.0
Alpha,Cd,Cl,Cm,XTr1,XTr2,TEHMom,Cpmn
 20.000       0.032     1.863     0.032     0.005     1.000    0.0000  -17.4204
 Cpi          Cpv
-----------------
 0.4963   -0.0520
 0.4384   -0.0522
 0.3772   -0.0528
 0.3270   -0.0537
 0.2827   -0.0551
 0.2429   -0.0568
 0.2044   -0.0589
 0.1676   -0.0613
 0.1322   -0.0641
 0.0972   -0.0673
 0.0626   -0.0709
 0.0280   -0.0749
-0.0060   -0.0792
-0.0406   -0.0839
-0.0754   -0.0889
-0.1104   -0.0943
-0.1461   -0.0999
-0.1824   -0.1059
-0.2192   -0.1121
-0.2573   -0.1183
-0.2961   -0.1243
-0.3364   -0.1293
-0.3775   -0.1306
-0.4207   -0.1286
-0.4651   -0.1476
-0.5118   -0.1757
-0.5601   -0.2126
-0.6113   -0.2576
-0.6645   -0.3095
-0.7207   -0.3672
-0.7801   -0.4298
-0.8426   -0.4961
-0.9088   -0.5659
-0.9792   -0.6387
-1.0538   -0.7147
-1.1333   -0.7939
-1.2180   -0.8769
-1.3084   -0.9640
-1.4056   -1.0558
-1.5097   -1.1530
-1.6217   -1.2562
-1.7424   -1.3662
-1.8731   -1.4841
-2.0159   -1.6114
-2.1705   -1.7484
-2.3411   -1.8980
-2.5284   -2.0612
-2.7369   -2.2413
-2.9697   -2.4409
-3.2311   -2.6637
-3.5282   -2.9151
-3.8702   -3.2022
-4.2649   -3.5316
-4.7285   -3.9158
-5.2798   -4.3694
-5.9423   -4.9109
-6.7535   -5.5688
-7.7599   -6.3782
-9.0273   -7.3871
-10.6399   -8.6524
-12.6918   -10.2266
-15.2685   -12.1711
-18.2601   -15.0084
-21.1269   -16.6353
-22.3809   -17.4204
-20.6080   -15.7875
-16.4597   -12.3157
-11.3385   -8.2017
-6.9922   -4.7996
-3.9829   -2.4946
-2.0531   -1.0502
-0.8517   -0.1749
-0.1059    0.3504
 0.3568    0.6616
 0.6426    0.8413
 0.8163    0.9393
 0.9179    0.9859
 0.9725    0.9999
 0.9961    0.9931
 0.9992    0.9731
 0.9888    0.9449
 0.9694    0.9118
 0.9444    0.8761
 0.9159    0.8391
 0.8854    0.8020
 0.8541    0.7653
 0.8228    0.7296
 0.7918    0.6950
 0.7616    0.6620
 0.7325    0.6303
 0.7044    0.6002
 0.6777    0.5716
 0.6522    0.5445
 0.6280    0.5188
 0.6050    0.4943
 0.5833    0.4711
 0.5628    0.4491
 0.5433    0.4281
 0.5250    0.4082
 0.5076    0.3891
 0.4911    0.3708
 0.4757    0.3533
 0.4609    0.3364
 0.4470    0.3200
 0.4339    0.3043
 0.4215    0.2889
 0.4098    0.2740
 0.3988    0.2594
 0.3886    0.2454
 0.3789    0.2314
 0.3701    0.2179
 0.3618    0.2045
 0.3545    0.1915
 0.3477    0.1784
 0.3419    0.1658
 0.3370    0.1532
 0.3329    0.1408
 0.3298    0.1284
 0.3279    0.1163
 0.3268    0.1039
 0.3274    0.0919
 0.3294    0.0798
 0.3331    0.0678
 0.3386    0.0557
 0.3467    0.0441
 0.3580    0.0331
 0.3724    0.0219
 0.3931    0.0123
 0.4215    0.0019
 0.4620   -0.0208
 0.4963   -0.0520


Reynolds = 9000000   Mach =    0  NCrit = 9.0
Alpha,Cd,Cl,Cm,XTr1,XTr2,TEHMom,Cpmn
 19.500       0.028     1.855     0.032     0.005     1.000    0.0000  -16.9586
 Cpi          Cpv
-----------------
 0.4932   -0.0274
 0.4352   -0.0276
 0.3739   -0.0281
 0.3237   -0.0290
 0.2794   -0.0303
 0.2397   -0.0319
 0.2014   -0.0338
 0.1648   -0.0361
 0.1296   -0.0388
 0.0949   -0.0417
 0.0606   -0.0450
 0.0264   -0.0486
-0.0073   -0.0526
-0.0415   -0.0568
-0.0759   -0.0613
-0.1105   -0.0659
-0.1457   -0.0707
-0.1816   -0.0753
-0.2178   -0.0793
-0.2554   -0.0812
-0.2935   -0.0772
-0.3332   -0.0861
-0.3736   -0.1055
-0.4161   -0.1320
-0.4598   -0.1655
-0.5056   -0.2055
-0.5531   -0.2512
-0.6033   -0.3019
-0.6555   -0.3567
-0.7106   -0.4150
-0.7688   -0.4763
-0.8300   -0.5403
-0.8949   -0.6071
-0.9638   -0.6768
-1.0367   -0.7494
-1.1144   -0.8255
-1.1971   -0.9054
-1.2854   -0.9895
-1.3803   -1.0786
-1.4818   -1.1730
-1.5909   -1.2735
-1.7085   -1.3808
-1.8357   -1.4960
-1.9746   -1.6205
-2.1248   -1.7546
-2.2905   -1.9011
-2.4723   -2.0610
-2.6744   -2.2375
-2.8999   -2.4332
-3.1529   -2.6515
-3.4402   -2.8979
-3.7707   -3.1793
-4.1517   -3.5019
-4.5989   -3.8782
-5.1301   -4.3223
-5.7678   -4.8521
-6.5479   -5.4955
-7.5144   -6.2864
-8.7298   -7.2714
-10.2738   -8.5051
-12.2343   -10.0369
-14.6897   -11.9243
-17.5283   -14.6839
-20.2257   -16.2326
-21.3557   -16.9586
-19.5827   -15.3195
-15.5586   -11.9014
-10.6424   -7.8806
-6.4965   -4.5714
-3.6405   -2.3380
-1.8185   -0.9445
-0.6907   -0.1037
 0.0047    0.3976
 0.4323    0.6923
 0.6933    0.8602
 0.8492    0.9499
 0.9377    0.9904
 0.9827    0.9999
 0.9991    0.9898
 0.9967    0.9674
 0.9821    0.9375
 0.9596    0.9032
 0.9322    0.8665
 0.9019    0.8289
 0.8701    0.7914
 0.8378    0.7546
 0.8057    0.7188
 0.7743    0.6843
 0.7438    0.6514
 0.7145    0.6201
 0.6864    0.5902
 0.6597    0.5620
 0.6344    0.5352
 0.6104    0.5100
 0.5877    0.4860
 0.5662    0.4633
 0.5460    0.4418
 0.5269    0.4214
 0.5089    0.4020
 0.4919    0.3835
 0.4758    0.3658
 0.4607    0.3488
 0.4464    0.3325
 0.4328    0.3168
 0.4202    0.3017
 0.4081    0.2870
 0.3968    0.2728
 0.3862    0.2589
 0.3764    0.2456
 0.3670    0.2324
 0.3586    0.2196
 0.3508    0.2070
 0.3438    0.1949
 0.3374    0.1827
 0.3320    0.1709
 0.3275    0.1593
 0.3238    0.1478
 0.3211    0.1365
 0.3195    0.1254
 0.3189    0.1141
 0.3199    0.1032
 0.3222    0.0922
 0.3263    0.0814
 0.3322    0.0705
 0.3407    0.0601
 0.3525    0.0503
 0.3673    0.0403
 0.3884    0.0318
 0.4173    0.0224
 0.4583    0.0014
 0.4932   -0.0274


Reynolds = 9000000   Mach =    0  NCrit = 9.0
Alpha,Cd,Cl,Cm,XTr1,XTr2,TEHMom,Cpmn
 19.000       0.025     1.842     0.030     0.005     1.000    0.0000  -16.4483
 Cpi          Cpv
-----------------
 0.4901   -0.0034
 0.4321   -0.0036
 0.3707   -0.0041
 0.3205   -0.0049
 0.2763   -0.0061
 0.2367   -0.0076
 0.1985   -0.0094
 0.1622   -0.0115
 0.1272   -0.0139
 0.0927   -0.0165
 0.0588   -0.0195
 0.0249   -0.0227
-0.0085   -0.0260
-0.0423   -0.0295
-0.0763   -0.0329
-0.1105   -0.0360
-0.1452   -0.0378
-0.1806   -0.0362
-0.2163   -0.0352
-0.2533   -0.0480
-0.2908   -0.0664
-0.3298   -0.0906
-0.3696   -0.1205
-0.4113   -0.1558
-0.4543   -0.1960
-0.4992   -0.2405
-0.5458   -0.2887
-0.5950   -0.3402
-0.6463   -0.3944
-0.7002   -0.4510
-0.7572   -0.5102
-0.8172   -0.5717
-0.8807   -0.6358
-0.9481   -0.7028
-1.0193   -0.7728
-1.0953   -0.8463
-1.1761   -0.9237
-1.2622   -1.0054
-1.3547   -1.0920
-1.4537   -1.1841
-1.5600   -1.2821
-1.6744   -1.3870
-1.7982   -1.4996
-1.9331   -1.6213
-2.0790   -1.7525
-2.2398   -1.8959
-2.4160   -2.0524
-2.6118   -2.2251
-2.8301   -2.4166
-3.0748   -2.6301
-3.3524   -2.8711
-3.6715   -3.1462
-4.0390   -3.4615
-4.4699   -3.8291
-4.9813   -4.2626
-5.5946   -4.7796
-6.3438   -5.4069
-7.2710   -6.1774
-8.4353   -7.1360
-9.9118   -8.3349
-11.7826   -9.8203
-14.1190   -11.6454
-16.8078   -14.3190
-19.3401   -15.7852
-20.3502   -16.4483
-18.5792   -14.8059
-14.6788   -11.4494
-9.9648   -7.5324
-6.0154   -4.3253
-3.3096   -2.1702
-1.5929   -0.8317
-0.5367   -0.0285
 0.1096    0.4471
 0.5032    0.7240
 0.7402    0.8794
 0.8788    0.9602
 0.9548    0.9943
 0.9905    0.9991
 1.0000    0.9856
 0.9924    0.9607
 0.9739    0.9289
 0.9484    0.8933
 0.9188    0.8557
 0.8868    0.8175
 0.8538    0.7796
 0.8206    0.7426
 0.7879    0.7068
 0.7561    0.6724
 0.7254    0.6397
 0.6960    0.6086
 0.6679    0.5791
 0.6413    0.5512
 0.6162    0.5249
 0.5924    0.5001
 0.5700    0.4766
 0.5489    0.4544
 0.5290    0.4335
 0.5102    0.4136
 0.4926    0.3948
 0.4760    0.3768
 0.4603    0.3597
 0.4456    0.3434
 0.4317    0.3277
 0.4185    0.3126
 0.4063    0.2982
 0.3946    0.2841
 0.3838    0.2706
 0.3735    0.2574
 0.3641    0.2448
 0.3552    0.2323
 0.3472    0.2204
 0.3397    0.2085
 0.3332    0.1972
 0.3272    0.1859
 0.3222    0.1750
 0.3180    0.1644
 0.3147    0.1538
 0.3124    0.1435
 0.3113    0.1335
 0.3110    0.1232
 0.3124    0.1135
 0.3151    0.1037
 0.3196    0.0941
 0.3259    0.0844
 0.3349    0.0752
 0.3470    0.0666
 0.3622    0.0579
 0.3838    0.0504
 0.4131    0.0421
 0.4546    0.0229
 0.4901   -0.0034


Reynolds = 9000000   Mach =    0  NCrit = 9.0
Alpha,Cd,Cl,Cm,XTr1,XTr2,TEHMom,Cpmn
 18.500       0.023     1.826     0.028     0.005     1.000    0.0000  -15.9117
 Cpi          Cpv
-----------------
 0.4870    0.0200
 0.4290    0.0199
 0.3675    0.0194
 0.3174    0.0187
 0.2732    0.0177
 0.2338    0.0163
 0.1958    0.0148
 0.1596    0.0129
 0.1249    0.0109
 0.0907    0.0086
 0.0571    0.0063
 0.0235    0.0039
-0.0095    0.0019
-0.0430    0.0005
-0.0765    0.0012
-0.1102    0.0054
-0.1445   -0.0013
-0.1794   -0.0138
-0.2145   -0.0308
-0.2510   -0.0525
-0.2879   -0.0790
-0.3263   -0.1100
-0.3654   -0.1452
-0.4064   -0.1844
-0.4485   -0.2270
-0.4926   -0.2725
-0.5383   -0.3205
-0.5866   -0.3710
-0.6368   -0.4235
-0.6896   -0.4782
-0.7455   -0.5352
-0.8041   -0.5944
-0.8662   -0.6563
-0.9321   -0.7210
-1.0017   -0.7888
-1.0759   -0.8602
-1.1548   -0.9355
-1.2388   -1.0150
-1.3290   -1.0995
-1.4253   -1.1893
-1.5288   -1.2851
-1.6401   -1.3876
-1.7604   -1.4977
-1.8915   -1.6167
-2.0331   -1.7450
-2.1890   -1.8852
-2.3597   -2.0382
-2.5493   -2.2070
-2.7604   -2.3941
-2.9968   -2.6027
-3.2649   -2.8380
-3.5727   -3.1065
-3.9268   -3.4142
-4.3416   -3.7725
-4.8334   -4.1950
-5.4225   -4.6984
-6.1415   -5.3088
-7.0299   -6.0578
-8.1439   -6.9886
-9.5541   -8.1510
-11.3368   -9.5877
-13.5566   -11.3479
-16.0990   -13.9306
-18.4703   -15.3130
-19.3646   -15.9117
-17.5979   -14.2682
-13.8208   -10.9784
-9.3059   -7.1712
-5.5493   -4.0711
-2.9903   -1.9978
-1.3763   -0.7166
-0.3899    0.0478
 0.2088    0.4969
 0.5694    0.7555
 0.7832    0.8981
 0.9053    0.9697
 0.9692    0.9973
 0.9960    0.9974
 0.9989    0.9804
 0.9864    0.9530
 0.9642    0.9194
 0.9359    0.8824
 0.9042    0.8439
 0.8707    0.8052
 0.8366    0.7670
 0.8026    0.7298
 0.7694    0.6940
 0.7372    0.6597
 0.7064    0.6272
 0.6769    0.5964
 0.6490    0.5673
 0.6226    0.5398
 0.5976    0.5139
 0.5742    0.4896
 0.5520    0.4666
 0.5313    0.4449
 0.5118    0.4245
 0.4934    0.4052
 0.4762    0.3869
 0.4600    0.3696
 0.4447    0.3530
 0.4304    0.3373
 0.4169    0.3223
 0.4042    0.3078
 0.3924    0.2941
 0.3811    0.2807
 0.3707    0.2679
 0.3609    0.2554
 0.3519    0.2435
 0.3434    0.2318
 0.3358    0.2206
 0.3287    0.2096
 0.3226    0.1991
 0.3170    0.1887
 0.3124    0.1787
 0.3086    0.1690
 0.3057    0.1594
 0.3038    0.1501
 0.3031    0.1411
 0.3032    0.1320
 0.3050    0.1233
 0.3081    0.1147
 0.3130    0.1063
 0.3197    0.0979
 0.3291    0.0900
 0.3417    0.0826
 0.3573    0.0750
 0.3793    0.0687
 0.4090    0.0615
 0.4511    0.0440
 0.4870    0.0200


Reynolds = 9000000   Mach =    0  NCrit = 9.0
Alpha,Cd,Cl,Cm,XTr1,XTr2,TEHMom,Cpmn
 18.000       0.021     1.805     0.025     0.005     1.000    0.0000  -15.3454
 Cpi          Cpv
-----------------
 0.4841    0.0430
 0.4260    0.0429
 0.3645    0.0425
 0.3144    0.0419
 0.2703    0.0410
 0.2310    0.0399
 0.1932    0.0387
 0.1572    0.0373
 0.1228    0.0360
 0.0888    0.0348
 0.0555    0.0341
 0.0222    0.0347
-0.0104    0.0378
-0.0435    0.0371
-0.0766    0.0289
-0.1098    0.0173
-0.1436    0.0021
-0.1780   -0.0170
-0.2126   -0.0401
-0.2485   -0.0671
-0.2848   -0.0979
-0.3225   -0.1323
-0.3609   -0.1698
-0.4012   -0.2102
-0.4425   -0.2530
-0.4858   -0.2981
-0.5306   -0.3450
-0.5779   -0.3940
-0.6271   -0.4448
-0.6788   -0.4977
-0.7335   -0.5527
-0.7908   -0.6100
-0.8516   -0.6700
-0.9159   -0.7328
-0.9839   -0.7988
-1.0563   -0.8683
-1.1332   -0.9416
-1.2152   -1.0192
-1.3030   -1.1017
-1.3968   -1.1894
-1.4975   -1.2829
-1.6057   -1.3830
-1.7225   -1.4906
-1.8498   -1.6069
-1.9870   -1.7322
-2.1381   -1.8691
-2.3034   -2.0185
-2.4867   -2.1833
-2.6908   -2.3658
-2.9190   -2.5693
-3.1775   -2.7985
-3.4742   -3.0601
-3.8150   -3.3596
-4.2140   -3.7083
-4.6865   -4.1190
-5.2518   -4.6080
-5.9409   -5.2005
-6.7912   -5.9268
-7.8557   -6.8282
-9.2008   -7.9521
-10.8971   -9.3377
-13.0027   -11.0298
-15.4020   -13.5159
-17.6166   -14.8131
-18.3993   -15.3454
-16.6391   -13.7032
-12.9847   -10.4855
-8.6658   -6.7950
-5.0983   -3.8076
-2.6828   -1.8199
-1.1688   -0.5985
-0.2502    0.1254
 0.3023    0.5470
 0.6310    0.7866
 0.8224    0.9161
 0.9285    0.9784
 0.9808    0.9992
 0.9992    0.9945
 0.9958    0.9740
 0.9786    0.9441
 0.9529    0.9086
 0.9221    0.8704
 0.8884    0.8310
 0.8535    0.7917
 0.8184    0.7532
 0.7837    0.7159
 0.7501    0.6801
 0.7177    0.6460
 0.6868    0.6137
 0.6574    0.5832
 0.6296    0.5544
 0.6033    0.5274
 0.5787    0.5020
 0.5555    0.4781
 0.5338    0.4557
 0.5134    0.4346
 0.4943    0.4147
 0.4763    0.3959
 0.4596    0.3783
 0.4438    0.3615
 0.4290    0.3456
 0.4151    0.3305
 0.4021    0.3161
 0.3898    0.3022
 0.3784    0.2891
 0.3675    0.2764
 0.3576    0.2643
 0.3481    0.2525
 0.3396    0.2414
 0.3315    0.2304
 0.3243    0.2199
 0.3177    0.2097
 0.3120    0.2001
 0.3068    0.1905
 0.3026    0.1814
 0.2992    0.1726
 0.2967    0.1640
 0.2952    0.1558
 0.2949    0.1478
 0.2955    0.1398
 0.2977    0.1323
 0.3012    0.1249
 0.3065    0.1177
 0.3136    0.1106
 0.3233    0.1039
 0.3363    0.0978
 0.3524    0.0915
 0.3748    0.0864
 0.4050    0.0802
 0.4476    0.0645
 0.4841    0.0430


Reynolds = 9000000   Mach =    0  NCrit = 9.0
Alpha,Cd,Cl,Cm,XTr1,XTr2,TEHMom,Cpmn
 17.500       0.020     1.783     0.021     0.005     1.000    0.0000  -14.7622
 Cpi          Cpv
-----------------
 0.4812    0.0662
 0.4231    0.0661
 0.3616    0.0659
 0.3115    0.0655
 0.2675    0.0650
 0.2283    0.0646
 0.1907    0.0642
 0.1550    0.0643
 0.1208    0.0653
 0.0871    0.0678
 0.0541    0.0690
 0.0212    0.0635
-0.0111    0.0557
-0.0438    0.0453
-0.0765    0.0320
-0.1093    0.0154
-0.1426   -0.0045
-0.1764   -0.0279
-0.2105   -0.0547
-0.2458   -0.0847
-0.2815   -0.1178
-0.3186   -0.1536
-0.3563   -0.1917
-0.3958   -0.2320
-0.4364   -0.2742
-0.4788   -0.3182
-0.5227   -0.3639
-0.5691   -0.4114
-0.6172   -0.4606
-0.6678   -0.5118
-0.7213   -0.5652
-0.7773   -0.6208
-0.8367   -0.6791
-0.8996   -0.7402
-0.9659   -0.8045
-1.0365   -0.8722
-1.1115   -0.9437
-1.1913   -1.0195
-1.2768   -1.1000
-1.3681   -1.1857
-1.4660   -1.2771
-1.5711   -1.3748
-1.6845   -1.4798
-1.8079   -1.5934
-1.9409   -1.7157
-2.0871   -1.8493
-2.2470   -1.9950
-2.4242   -2.1556
-2.6212   -2.3334
-2.8414   -2.5315
-3.0905   -2.7546
-3.3761   -3.0090
-3.7039   -3.3001
-4.0872   -3.6387
-4.5407   -4.0373
-5.0825   -4.5114
-5.7421   -5.0853
-6.5549   -5.7882
-7.5708   -6.6593
-8.8520   -7.7436
-10.4636   -9.0765
-12.4574   -10.6989
-14.7171   -13.0848
-16.7793   -14.2971
-17.4545   -14.7622
-15.7030   -13.1234
-12.1708   -9.9816
-8.0449   -6.4119
-4.6625   -3.5404
-2.3870   -1.6407
-0.9704   -0.4801
-0.1177    0.2025
 0.3900    0.5963
 0.6879    0.8168
 0.8577    0.9329
 0.9484    0.9858
 0.9897    1.0000
 1.0000    0.9904
 0.9906    0.9665
 0.9691    0.9340
 0.9401    0.8968
 0.9069    0.8573
 0.8714    0.8171
 0.8353    0.7773
 0.7993    0.7385
 0.7641    0.7011
 0.7301    0.6654
 0.6975    0.6314
 0.6666    0.5995
 0.6373    0.5693
 0.6097    0.5409
 0.5837    0.5143
 0.5594    0.4894
 0.5366    0.4661
 0.5152    0.4441
 0.4952    0.4236
 0.4766    0.4043
 0.4591    0.3861
 0.4427    0.3690
 0.4274    0.3529
 0.4131    0.3375
 0.3997    0.3231
 0.3871    0.3093
 0.3752    0.2961
 0.3643    0.2837
 0.3539    0.2716
 0.3444    0.2602
 0.3354    0.2491
 0.3273    0.2387
 0.3196    0.2284
 0.3129    0.2188
 0.3067    0.2094
 0.3014    0.2005
 0.2966    0.1918
 0.2928    0.1836
 0.2899    0.1758
 0.2878    0.1682
 0.2867    0.1609
 0.2868    0.1540
 0.2878    0.1472
 0.2904    0.1409
 0.2943    0.1347
 0.3000    0.1288
 0.3075    0.1230
 0.3177    0.1177
 0.3311    0.1129
 0.3476    0.1080
 0.3704    0.1040
 0.4011    0.0989
 0.4442    0.0851
 0.4812    0.0662


Reynolds = 9000000   Mach =    0  NCrit = 9.0
Alpha,Cd,Cl,Cm,XTr1,XTr2,TEHMom,Cpmn
 17.000       0.019     1.757     0.018     0.005     1.000    0.0000  -14.1674
 Cpi          Cpv
-----------------
 0.4784    0.0915
 0.4203    0.0915
 0.3587    0.0917
 0.3086    0.0920
 0.2647    0.0928
 0.2258    0.0942
 0.1883    0.0960
 0.1528    0.0953
 0.1189    0.0916
 0.0855    0.0864
 0.0528    0.0794
 0.0202    0.0704
-0.0117    0.0589
-0.0439    0.0448
-0.0762    0.0278
-0.1086    0.0078
-0.1414   -0.0153
-0.1747   -0.0414
-0.2082   -0.0703
-0.2429   -0.1019
-0.2780   -0.1359
-0.3144   -0.1720
-0.3514   -0.2099
-0.3902   -0.2497
-0.4300   -0.2909
-0.4716   -0.3338
-0.5146   -0.3782
-0.5600   -0.4243
-0.6071   -0.4721
-0.6566   -0.5218
-0.7088   -0.5737
-0.7636   -0.6278
-0.8216   -0.6846
-0.8829   -0.7442
-0.9477   -0.8068
-1.0165   -0.8729
-1.0896   -0.9427
-1.1673   -1.0167
-1.2505   -1.0953
-1.3392   -1.1790
-1.4343   -1.2682
-1.5363   -1.3636
-1.6463   -1.4661
-1.7659   -1.5769
-1.8946   -1.6961
-2.0361   -1.8263
-2.1907   -1.9682
-2.3617   -2.1246
-2.5518   -2.2976
-2.7639   -2.4902
-3.0038   -2.7070
-3.2784   -2.9541
-3.5933   -3.2365
-3.9612   -3.5648
-4.3958   -3.9510
-4.9145   -4.4098
-5.5452   -4.9647
-6.3211   -5.6435
-7.2893   -6.4837
-8.5078   -7.5275
-10.0365   -8.8069
-11.9210   -10.3584
-14.0445   -12.6413
-15.9586   -13.7696
-16.5306   -14.1674
-14.7900   -12.5342
-11.3794   -9.4712
-7.4432   -6.0256
-4.2419   -3.2720
-2.1031   -1.4616
-0.7813   -0.3626
 0.0075    0.2783
 0.4718    0.6442
 0.7400    0.8454
 0.8891    0.9483
 0.9651    0.9919
 0.9959    0.9994
 0.9984    0.9851
 0.9835    0.9577
 0.9578    0.9228
 0.9258    0.8839
 0.8903    0.8432
 0.8533    0.8023
 0.8160    0.7619
 0.7793    0.7229
 0.7436    0.6854
 0.7094    0.6499
 0.6767    0.6161
 0.6458    0.5845
 0.6167    0.5547
 0.5893    0.5267
 0.5637    0.5006
 0.5397    0.4762
 0.5173    0.4534
 0.4964    0.4320
 0.4768    0.4120
 0.4586    0.3933
 0.4416    0.3757
 0.4258    0.3592
 0.4109    0.3437
 0.3970    0.3290
 0.3841    0.3152
 0.3720    0.3020
 0.3606    0.2895
 0.3502    0.2777
 0.3403    0.2663
 0.3312    0.2556
 0.3227    0.2452
 0.3150    0.2355
 0.3078    0.2260
 0.3015    0.2171
 0.2957    0.2085
 0.2908    0.2005
 0.2865    0.1926
 0.2831    0.1854
 0.2806    0.1785
 0.2789    0.1718
 0.2783    0.1657
 0.2788    0.1599
 0.2801    0.1542
 0.2832    0.1491
 0.2875    0.1443
 0.2937    0.1398
 0.3015    0.1355
 0.3121    0.1317
 0.3260    0.1284
 0.3428    0.1250
 0.3661    0.1225
 0.3973    0.1188
 0.4409    0.1074
 0.4784    0.0915


Reynolds = 9000000   Mach =    0  NCrit = 9.0
Alpha,Cd,Cl,Cm,XTr1,XTr2,TEHMom,Cpmn
 16.500       0.018     1.730     0.014     0.005     1.000    0.0000  -13.5632
 Cpi          Cpv
-----------------
 0.4756    0.1200
 0.4176    0.1199
 0.3559    0.1193
 0.3059    0.1182
 0.2621    0.1165
 0.2233    0.1141
 0.1860    0.1107
 0.1508    0.1062
 0.1171    0.1003
 0.0840    0.0927
 0.0517    0.0831
 0.0194    0.0714
-0.0121    0.0572
-0.0439    0.0403
-0.0758    0.0207
-0.1077   -0.0017
-0.1400   -0.0268
-0.1728   -0.0545
-0.2058   -0.0846
-0.2399   -0.1169
-0.2744   -0.1511
-0.3101   -0.1871
-0.3464   -0.2245
-0.3844   -0.2635
-0.4234   -0.3038
-0.4642   -0.3455
-0.5063   -0.3887
-0.5507   -0.4336
-0.5967   -0.4801
-0.6451   -0.5285
-0.6962   -0.5790
-0.7497   -0.6318
-0.8063   -0.6871
-0.8661   -0.7453
-0.9292   -0.8064
-0.9963   -0.8709
-1.0674   -0.9391
-1.1430   -1.0113
-1.2239   -1.0881
-1.3101   -1.1697
-1.4024   -1.2568
-1.5013   -1.3498
-1.6080   -1.4497
-1.7238   -1.5577
-1.8483   -1.6739
-1.9851   -1.8006
-2.1343   -1.9387
-2.2993   -2.0907
-2.4825   -2.2588
-2.6867   -2.4458
-2.9173   -2.6561
-3.1812   -2.8957
-3.4834   -3.1692
-3.8360   -3.4869
-4.2521   -3.8604
-4.7480   -4.3037
-5.3502   -4.8392
-6.0899   -5.4934
-7.0113   -6.3020
-8.1682   -7.3047
-9.6157   -8.5297
-11.3935   -10.0097
-13.3843   -12.1870
-15.1548   -13.2326
-15.6278   -13.5632
-13.9003   -11.9373
-10.6107   -8.9563
-6.8611   -5.6371
-3.8369   -3.0036
-1.8311   -1.2833
-0.6015   -0.2466
 0.1254    0.3526
 0.5479    0.6903
 0.7874    0.8724
 0.9166    0.9621
 0.9786    0.9963
 0.9993    0.9973
 0.9945    0.9783
 0.9743    0.9476
 0.9447    0.9103
 0.9099    0.8698
 0.8724    0.8280
 0.8340    0.7863
 0.7957    0.7456
 0.7583    0.7064
 0.7223    0.6689
 0.6879    0.6335
 0.6552    0.6000
 0.6245    0.5687
 0.5956    0.5393
 0.5685    0.5118
 0.5432    0.4862
 0.5197    0.4623
 0.4977    0.4401
 0.4773    0.4193
 0.4582    0.3999
 0.4405    0.3817
 0.4240    0.3648
 0.4086    0.3489
 0.3943    0.3340
 0.3809    0.3199
 0.3685    0.3067
 0.3569    0.2942
 0.3460    0.2823
 0.3360    0.2712
 0.3266    0.2605
 0.3180    0.2505
 0.3099    0.2408
 0.3027    0.2318
 0.2959    0.2230
 0.2901    0.2149
 0.2847    0.2071
 0.2803    0.1999
 0.2764    0.1929
 0.2735    0.1865
 0.2714    0.1806
 0.2701    0.1749
 0.2699    0.1698
 0.2708    0.1652
 0.2726    0.1607
 0.2760    0.1570
 0.2808    0.1535
 0.2873    0.1506
 0.2957    0.1479
 0.3067    0.1459
 0.3209    0.1445
 0.3382    0.1431
 0.3619    0.1424
 0.3935    0.1407
 0.4376    0.1322
 0.4756    0.1200


Reynolds = 9000000   Mach =    0  NCrit = 9.0
Alpha,Cd,Cl,Cm,XTr1,XTr2,TEHMom,Cpmn
 16.000       0.016     1.699     0.011     0.000     0.000    0.0000  -12.9844
 Cpi          Cpv
-----------------
 0.4729
 0.4150
 0.3533
 0.3033
 0.2596
 0.2210
 0.1839
 0.1489
 0.1155
 0.0827
 0.0507
 0.0188
-0.0123
-0.0438
-0.0752
-0.1066
-0.1384
-0.1707
-0.2031
-0.2366
-0.2705
-0.3056
-0.3412
-0.3785
-0.4166
-0.4565
-0.4977
-0.5412
-0.5862
-0.6335
-0.6833
-0.7356
-0.7907
-0.8491
-0.9106
-0.9759
-1.0451
-1.1186
-1.1972
-1.2809
-1.3704
-1.4663
-1.5695
-1.6816
-1.8020
-1.9340
-2.0780
-2.2370
-2.4133
-2.6097
-2.8313
-3.0845
-3.3741
-3.7116
-4.1095
-4.5831
-5.1572
-5.8614
-6.7368
-7.8335
-9.2016
-10.8752
-12.7367
-14.3681
-14.7464
-13.0342
-9.8649
-6.2985
-3.4474
-1.5713
-0.4310
 0.2360
 0.6181
 0.8301
 0.9402
 0.9888
 0.9999
 0.9883
 0.9631
 0.9299
 0.8925
 0.8532
 0.8135
 0.7744
 0.7365
 0.7001
 0.6657
 0.6331
 0.6026
 0.5740
 0.5473
 0.5224
 0.4993
 0.4778
 0.4578
 0.4393
 0.4221
 0.4061
 0.3913
 0.3775
 0.3647
 0.3528
 0.3416
 0.3313
 0.3218
 0.3128
 0.3047
 0.2971
 0.2904
 0.2841
 0.2787
 0.2738
 0.2698
 0.2663
 0.2639
 0.2622
 0.2614
 0.2616
 0.2629
 0.2651
 0.2690
 0.2742
 0.2811
 0.2898
 0.3013
 0.3159
 0.3336
 0.3578
 0.3898
 0.4344
 0.4729


Reynolds = 9000000   Mach =    0  NCrit = 9.0
Alpha,Cd,Cl,Cm,XTr1,XTr2,TEHMom,Cpmn
 15.500       0.016     1.655     0.009     0.006     1.000    0.0000  -12.2622
 Cpi          Cpv
-----------------
 0.4703    0.1468
 0.4124    0.1464
 0.3507    0.1452
 0.3008    0.1430
 0.2572    0.1398
 0.2187    0.1354
 0.1819    0.1296
 0.1471    0.1223
 0.1140    0.1132
 0.0815    0.1021
 0.0498    0.0887
 0.0183    0.0730
-0.0124    0.0549
-0.0434    0.0343
-0.0744    0.0112
-0.1054   -0.0141
-0.1367   -0.0416
-0.1684   -0.0711
-0.2003   -0.1021
-0.2332   -0.1348
-0.2665   -0.1686
-0.3009   -0.2038
-0.3357   -0.2400
-0.3723   -0.2774
-0.4097   -0.3159
-0.4487   -0.3556
-0.4890   -0.3967
-0.5315   -0.4393
-0.5754   -0.4834
-0.6216   -0.5294
-0.6703   -0.5775
-0.7212   -0.6276
-0.7750   -0.6802
-0.8319   -0.7355
-0.8917   -0.7936
-0.9552   -0.8549
-1.0225   -0.9197
-1.0939   -0.9882
-1.1703   -1.0611
-1.2515   -1.1384
-1.3382   -1.2209
-1.4311   -1.3089
-1.5310   -1.4033
-1.6393   -1.5051
-1.7556   -1.6145
-1.8830   -1.7337
-2.0217   -1.8634
-2.1748   -2.0059
-2.3444   -2.1633
-2.5330   -2.3379
-2.7456   -2.5341
-2.9883   -2.7571
-3.2655   -3.0111
-3.5882   -3.3057
-3.9682   -3.6512
-4.4197   -4.0602
-4.9663   -4.5531
-5.6356   -5.1537
-6.4659   -5.8936
-7.5037   -6.8076
-8.7942   -7.9217
-10.3662   -9.2700
-12.1021   -11.0795
-13.5988   -12.1011
-13.8866   -12.2622
-12.1919   -10.6512
-9.1422   -7.8522
-5.7558   -4.8089
-3.0736   -2.4361
-1.3235   -0.9096
-0.2699   -0.0067
 0.3392    0.5037
 0.6825    0.7814
 0.8680    0.9232
 0.9599    0.9850
 0.9957    1.0000
 0.9978    0.9873
 0.9797    0.9587
 0.9499    0.9212
 0.9134    0.8792
 0.8736    0.8353
 0.8327    0.7914
 0.7918    0.7483
 0.7520    0.7069
 0.7137    0.6674
 0.6772    0.6301
 0.6428    0.5950
 0.6104    0.5621
 0.5801    0.5316
 0.5519    0.5031
 0.5256    0.4766
 0.5012    0.4520
 0.4785    0.4293
 0.4576    0.4082
 0.4382    0.3886
 0.4202    0.3704
 0.4036    0.3535
 0.3881    0.3377
 0.3739    0.3231
 0.3606    0.3094
 0.3483    0.2966
 0.3369    0.2846
 0.3263    0.2734
 0.3165    0.2627
 0.3075    0.2528
 0.2991    0.2433
 0.2914    0.2345
 0.2843    0.2261
 0.2781    0.2184
 0.2722    0.2109
 0.2673    0.2041
 0.2629    0.1976
 0.2594    0.1918
 0.2563    0.1862
 0.2543    0.1812
 0.2531    0.1768
 0.2527    0.1727
 0.2533    0.1692
 0.2551    0.1662
 0.2577    0.1635
 0.2620    0.1616
 0.2676    0.1601
 0.2750    0.1592
 0.2841    0.1587
 0.2959    0.1589
 0.3110    0.1597
 0.3291    0.1604
 0.3537    0.1615
 0.3862    0.1614
 0.4313    0.1556
 0.4703    0.1468


Reynolds = 9000000   Mach =    0  NCrit = 9.0
Alpha,Cd,Cl,Cm,XTr1,XTr2,TEHMom,Cpmn
 15.000       0.015     1.615     0.007     0.008     1.000    0.0000  -11.6116
 Cpi          Cpv
-----------------
 0.4678    0.1578
 0.4099    0.1573
 0.3482    0.1557
 0.2984    0.1531
 0.2549    0.1491
 0.2166    0.1438
 0.1800    0.1369
 0.1455    0.1283
 0.1127    0.1177
 0.0805    0.1049
 0.0491    0.0899
 0.0180    0.0725
-0.0124    0.0528
-0.0430    0.0307
-0.0735    0.0064
-0.1040   -0.0200
-0.1348   -0.0482
-0.1660   -0.0781
-0.1973   -0.1092
-0.2296   -0.1417
-0.2622   -0.1752
-0.2959   -0.2098
-0.3301   -0.2452
-0.3659   -0.2818
-0.4025   -0.3194
-0.4407   -0.3582
-0.4801   -0.3981
-0.5215   -0.4397
-0.5645   -0.4827
-0.6096   -0.5275
-0.6570   -0.5744
-0.7067   -0.6232
-0.7591   -0.6745
-0.8144   -0.7284
-0.8727   -0.7850
-0.9344   -0.8447
-0.9998   -0.9078
-1.0692   -0.9744
-1.1432   -1.0453
-1.2219   -1.1205
-1.3059   -1.2006
-1.3958   -1.2861
-1.4924   -1.3777
-1.5970   -1.4764
-1.7091   -1.5824
-1.8319   -1.6978
-1.9655   -1.8231
-2.1127   -1.9609
-2.2756   -2.1128
-2.4566   -2.2812
-2.6603   -2.4701
-2.8927   -2.6847
-3.1577   -2.9290
-3.4658   -3.2119
-3.8280   -3.5432
-4.2579   -3.9350
-4.7775   -4.4063
-5.4125   -4.9791
-6.1987   -5.6821
-7.1789   -6.5453
-8.3937   -7.6082
-9.8667   -8.9425
-11.4805   -10.5196
-12.8470   -11.5277
-13.0488   -11.6116
-11.3738   -10.0128
-8.4430   -7.3074
-5.2330   -4.4033
-2.7156   -2.1603
-1.0880   -0.7302
-0.1182    0.1069
 0.4350    0.5736
 0.7409    0.8222
 0.9012    0.9443
 0.9757    0.9928
 0.9994    0.9984
 0.9929    0.9793
 0.9688    0.9462
 0.9347    0.9055
 0.8951    0.8614
 0.8532    0.8161
 0.8108    0.7712
 0.7690    0.7276
 0.7286    0.6859
 0.6901    0.6464
 0.6535    0.6092
 0.6192    0.5745
 0.5870    0.5419
 0.5571    0.5119
 0.5293    0.4839
 0.5034    0.4579
 0.4795    0.4340
 0.4575    0.4118
 0.4371    0.3914
 0.4182    0.3724
 0.4008    0.3548
 0.3848    0.3386
 0.3699    0.3234
 0.3562    0.3095
 0.3436    0.2964
 0.3318    0.2842
 0.3210    0.2729
 0.3110    0.2622
 0.3016    0.2522
 0.2932    0.2429
 0.2853    0.2340
 0.2781    0.2258
 0.2715    0.2181
 0.2658    0.2110
 0.2604    0.2041
 0.2559    0.1979
 0.2520    0.1921
 0.2489    0.1869
 0.2464    0.1820
 0.2448    0.1777
 0.2440    0.1740
 0.2441    0.1706
 0.2451    0.1679
 0.2473    0.1657
 0.2504    0.1638
 0.2551    0.1627
 0.2611    0.1621
 0.2689    0.1621
 0.2785    0.1626
 0.2907    0.1637
 0.3062    0.1655
 0.3247    0.1671
 0.3497    0.1690
 0.3827    0.1695
 0.4283    0.1650
 0.4678    0.1578


Reynolds = 9000000   Mach =    0  NCrit = 9.0
Alpha,Cd,Cl,Cm,XTr1,XTr2,TEHMom,Cpmn
 14.500       0.014     1.572     0.006     0.008     1.000    0.0000  -10.9507
 Cpi          Cpv
-----------------
 0.4654    0.1664
 0.4075    0.1659
 0.3458    0.1641
 0.2960    0.1609
 0.2527    0.1563
 0.2146    0.1502
 0.1782    0.1423
 0.1440    0.1324
 0.1114    0.1205
 0.0796    0.1064
 0.0486    0.0900
 0.0178    0.0713
-0.0121    0.0503
-0.0423    0.0271
-0.0724    0.0018
-0.1024   -0.0252
-0.1327   -0.0537
-0.1634   -0.0837
-0.1941   -0.1147
-0.2258   -0.1468
-0.2578   -0.1798
-0.2909   -0.2137
-0.3243   -0.2484
-0.3593   -0.2841
-0.3951   -0.3208
-0.4324   -0.3586
-0.4709   -0.3976
-0.5114   -0.4381
-0.5533   -0.4800
-0.5973   -0.5237
-0.6436   -0.5693
-0.6919   -0.6169
-0.7429   -0.6669
-0.7968   -0.7194
-0.8534   -0.7744
-0.9134   -0.8326
-0.9769   -0.8939
-1.0442   -0.9587
-1.1160   -1.0276
-1.1922   -1.1006
-1.2735   -1.1783
-1.3604   -1.2612
-1.4536   -1.3499
-1.5546   -1.4455
-1.6627   -1.5480
-1.7809   -1.6595
-1.9093   -1.7805
-2.0508   -1.9133
-2.2070   -2.0596
-2.3805   -2.2217
-2.5755   -2.4033
-2.7976   -2.6093
-3.0506   -2.8436
-3.3443   -3.1145
-3.6892   -3.4314
-4.0978   -3.8056
-4.5908   -4.2548
-5.1923   -4.7995
-5.9353   -5.4656
-6.8591   -6.2792
-8.0001   -7.2846
-9.3767   -8.6121
-10.8722   -9.9809
-12.1131   -10.9319
-12.2332   -10.9507
-10.5801   -9.3699
-7.7673   -6.7620
-4.7304   -3.9997
-2.3736   -1.8878
-0.8648   -0.5544
 0.0240    0.2169
 0.5234    0.6400
 0.7935    0.8598
 0.9296    0.9625
 0.9875    0.9978
 0.9998    0.9944
 0.9853    0.9691
 0.9556    0.9316
 0.9174    0.8880
 0.8751    0.8418
 0.8314    0.7951
 0.7877    0.7494
 0.7451    0.7054
 0.7042    0.6636
 0.6655    0.6241
 0.6290    0.5872
 0.5949    0.5528
 0.5630    0.5207
 0.5336    0.4911
 0.5062    0.4637
 0.4809    0.4383
 0.4576    0.4150
 0.4361    0.3935
 0.4163    0.3737
 0.3981    0.3553
 0.3813    0.3384
 0.3658    0.3228
 0.3516    0.3084
 0.3385    0.2950
 0.3264    0.2826
 0.3152    0.2711
 0.3050    0.2604
 0.2955    0.2503
 0.2867    0.2409
 0.2788    0.2323
 0.2714    0.2240
 0.2648    0.2164
 0.2587    0.2093
 0.2535    0.2028
 0.2486    0.1965
 0.2446    0.1910
 0.2411    0.1858
 0.2386    0.1812
 0.2364    0.1769
 0.2353    0.1733
 0.2350    0.1702
 0.2355    0.1676
 0.2370    0.1655
 0.2397    0.1641
 0.2431    0.1630
 0.2483    0.1627
 0.2547    0.1630
 0.2629    0.1638
 0.2729    0.1651
 0.2856    0.1672
 0.3015    0.1698
 0.3204    0.1722
 0.3459    0.1746
 0.3792    0.1756
 0.4253    0.1723
 0.4654    0.1664


Reynolds = 9000000   Mach =    0  NCrit = 9.0
Alpha,Cd,Cl,Cm,XTr1,XTr2,TEHMom,Cpmn
 14.000       0.013     1.525     0.005     0.009     1.000    0.0000  -10.3275
 Cpi          Cpv
-----------------
 0.4630    0.1727
 0.4052    0.1721
 0.3435    0.1700
 0.2938    0.1664
 0.2507    0.1613
 0.2128    0.1544
 0.1766    0.1457
 0.1426    0.1349
 0.1103    0.1220
 0.0788    0.1068
 0.0481    0.0893
 0.0178    0.0695
-0.0118    0.0477
-0.0415    0.0237
-0.0711   -0.0020
-0.1007   -0.0293
-0.1305   -0.0579
-0.1606   -0.0877
-0.1908   -0.1184
-0.2219   -0.1500
-0.2532   -0.1824
-0.2856   -0.2156
-0.3183   -0.2495
-0.3526   -0.2844
-0.3875   -0.3202
-0.4240   -0.3571
-0.4616   -0.3950
-0.5011   -0.4345
-0.5420   -0.4754
-0.5848   -0.5179
-0.6299   -0.5624
-0.6770   -0.6087
-0.7266   -0.6573
-0.7790   -0.7084
-0.8340   -0.7620
-0.8923   -0.8185
-0.9539   -0.8780
-1.0191   -0.9410
-1.0886   -1.0078
-1.1624   -1.0786
-1.2410   -1.1539
-1.3249   -1.2341
-1.4149   -1.3199
-1.5122   -1.4124
-1.6162   -1.5113
-1.7299   -1.6188
-1.8533   -1.7353
-1.9890   -1.8632
-2.1387   -2.0038
-2.3047   -2.1594
-2.4911   -2.3335
-2.7031   -2.5309
-2.9442   -2.7549
-3.2238   -3.0137
-3.5517   -3.3160
-3.9393   -3.6723
-4.4064   -4.0994
-4.9750   -4.6159
-5.6758   -5.2455
-6.5446   -6.0113
-7.6135   -6.9530
-8.8965   -8.2566
-10.2773   -9.4446
-11.3972   -10.3275
-11.4400   -10.2836
-9.8109   -8.7242
-7.1154   -6.2168
-4.2481   -3.5989
-2.0476   -1.6190
-0.6539   -0.3828
 0.1566    0.3229
 0.6044    0.7027
 0.8401    0.8939
 0.9532    0.9775
 0.9955    0.9999
 0.9969    0.9878
 0.9750    0.9563
 0.9400    0.9148
 0.8982    0.8683
 0.8534    0.8202
 0.8080    0.7724
 0.7632    0.7260
 0.7200    0.6816
 0.6789    0.6397
 0.6401    0.6004
 0.6037    0.5638
 0.5699    0.5298
 0.5384    0.4982
 0.5095    0.4692
 0.4826    0.4424
 0.4579    0.4177
 0.4352    0.3950
 0.4143    0.3741
 0.3952    0.3550
 0.3776    0.3374
 0.3615    0.3212
 0.3467    0.3063
 0.3330    0.2925
 0.3206    0.2798
 0.3091    0.2681
 0.2985    0.2571
 0.2889    0.2471
 0.2800    0.2377
 0.2718    0.2289
 0.2645    0.2209
 0.2576    0.2132
 0.2515    0.2062
 0.2459    0.1997
 0.2412    0.1938
 0.2368    0.1881
 0.2333    0.1832
 0.2303    0.1786
 0.2282    0.1746
 0.2266    0.1710
 0.2259    0.1680
 0.2261    0.1655
 0.2270    0.1636
 0.2290    0.1622
 0.2321    0.1614
 0.2360    0.1610
 0.2416    0.1615
 0.2484    0.1625
 0.2571    0.1641
 0.2675    0.1663
 0.2805    0.1691
 0.2969    0.1724
 0.3162    0.1754
 0.3421    0.1783
 0.3759    0.1797
 0.4224    0.1773
 0.4630    0.1727


Reynolds = 9000000   Mach =    0  NCrit = 9.0
Alpha,Cd,Cl,Cm,XTr1,XTr2,TEHMom,Cpmn
 13.500       0.012     1.478     0.004     0.009     1.000    0.0000  -9.7283
 Cpi          Cpv
-----------------
 0.4607    0.1776
 0.4030    0.1770
 0.3413    0.1747
 0.2917    0.1708
 0.2487    0.1651
 0.2110    0.1576
 0.1751    0.1481
 0.1413    0.1365
 0.1094    0.1226
 0.0782    0.1065
 0.0479    0.0882
 0.0179    0.0676
-0.0113    0.0451
-0.0406    0.0207
-0.0697   -0.0054
-0.0988   -0.0327
-0.1281   -0.0613
-0.1576   -0.0908
-0.1872   -0.1211
-0.2177   -0.1522
-0.2484   -0.1839
-0.2801   -0.2163
-0.3121   -0.2494
-0.3456   -0.2835
-0.3798   -0.3184
-0.4154   -0.3543
-0.4521   -0.3914
-0.4906   -0.4299
-0.5304   -0.4696
-0.5722   -0.5110
-0.6161   -0.5543
-0.6619   -0.5994
-0.7101   -0.6467
-0.7610   -0.6963
-0.8144   -0.7484
-0.8709   -0.8033
-0.9306   -0.8611
-0.9938   -0.9222
-1.0611   -0.9869
-1.1324   -1.0555
-1.2084   -1.1284
-1.2893   -1.2059
-1.3760   -1.2888
-1.4697   -1.3780
-1.5698   -1.4733
-1.6790   -1.5769
-1.7974   -1.6890
-1.9274   -1.8118
-2.0707   -1.9467
-2.2293   -2.0958
-2.4072   -2.2624
-2.6093   -2.4511
-2.8388   -2.6649
-3.1044   -2.9116
-3.4155   -3.1993
-3.7827   -3.5378
-4.2243   -3.9429
-4.7607   -4.4317
-5.4203   -5.0256
-6.2354   -5.7444
-7.2342   -6.6220
-8.4263   -7.8836
-9.6960   -8.9199
-10.6995   -9.7283
-10.6695   -9.6238
-9.0666   -8.0884
-6.4875   -5.6824
-3.7862   -3.2085
-1.7377   -1.3590
-0.4554   -0.2188
 0.2797    0.4228
 0.6778    0.7601
 0.8808    0.9237
 0.9720    0.9889
 0.9995    0.9989
 0.9908    0.9783
 0.9619    0.9413
 0.9221    0.8957
 0.8770    0.8467
 0.8300    0.7969
 0.7831    0.7481
 0.7374    0.7011
 0.6937    0.6565
 0.6525    0.6147
 0.6138    0.5757
 0.5777    0.5394
 0.5443    0.5059
 0.5133    0.4749
 0.4848    0.4465
 0.4586    0.4203
 0.4345    0.3963
 0.4125    0.3743
 0.3923    0.3542
 0.3739    0.3358
 0.3569    0.3189
 0.3415    0.3034
 0.3273    0.2892
 0.3144    0.2761
 0.3026    0.2641
 0.2917    0.2530
 0.2818    0.2428
 0.2728    0.2334
 0.2644    0.2246
 0.2568    0.2165
 0.2500    0.2090
 0.2437    0.2020
 0.2382    0.1957
 0.2331    0.1897
 0.2289    0.1844
 0.2250    0.1794
 0.2221    0.1750
 0.2196    0.1710
 0.2180    0.1677
 0.2168    0.1646
 0.2166    0.1623
 0.2172    0.1604
 0.2186    0.1591
 0.2210    0.1584
 0.2245    0.1583
 0.2289    0.1586
 0.2349    0.1598
 0.2422    0.1615
 0.2513    0.1639
 0.2621    0.1668
 0.2756    0.1704
 0.2924    0.1743
 0.3121    0.1778
 0.3384    0.1809
 0.3726    0.1826
 0.4196    0.1811
 0.4607    0.1776


Reynolds = 9000000   Mach =    0  NCrit = 9.0
Alpha,Cd,Cl,Cm,XTr1,XTr2,TEHMom,Cpmn
 13.000       0.012     1.429     0.003     0.009     1.000    0.0000  -9.1389
 Cpi          Cpv
-----------------
 0.4585    0.1817
 0.4009    0.1810
 0.3392    0.1786
 0.2897    0.1743
 0.2469    0.1681
 0.2094    0.1600
 0.1737    0.1498
 0.1402    0.1374
 0.1086    0.1227
 0.0777    0.1058
 0.0477    0.0867
 0.0181    0.0655
-0.0106    0.0425
-0.0395    0.0177
-0.0681   -0.0084
-0.0967   -0.0358
-0.1255   -0.0641
-0.1545   -0.0932
-0.1835   -0.1230
-0.2134   -0.1535
-0.2434   -0.1846
-0.2745   -0.2163
-0.3058   -0.2486
-0.3385   -0.2818
-0.3719   -0.3158
-0.4066   -0.3509
-0.4423   -0.3869
-0.4799   -0.4244
-0.5187   -0.4631
-0.5593   -0.5034
-0.6020   -0.5455
-0.6466   -0.5894
-0.6934   -0.6353
-0.7428   -0.6836
-0.7947   -0.7341
-0.8495   -0.7874
-0.9073   -0.8434
-0.9684   -0.9026
-1.0334   -0.9653
-1.1023   -1.0317
-1.1756   -1.1022
-1.2537   -1.1770
-1.3372   -1.2570
-1.4273   -1.3430
-1.5234   -1.4347
-1.6282   -1.5343
-1.7416   -1.6419
-1.8660   -1.7597
-2.0029   -1.8890
-2.1543   -2.0316
-2.3238   -2.1908
-2.5161   -2.3708
-2.7341   -2.5745
-2.9861   -2.8091
-3.2807   -3.0824
-3.6278   -3.4033
-4.0445   -3.7866
-4.5495   -4.2481
-5.1687   -4.8070
-5.9316   -5.4798
-6.8622   -6.2946
-7.9660   -7.5050
-9.1285   -8.4079
-10.0204   -9.1389
-9.9220   -8.9772
-8.3473   -7.4676
-5.8838   -5.1636
-3.3449   -2.8317
-1.4440   -1.1105
-0.2694   -0.0636
 0.3932    0.5154
 0.7438    0.8119
 0.9155    0.9488
 0.9860    0.9963
 0.9995    0.9946
 0.9814    0.9661
 0.9460    0.9237
 0.9018    0.8747
 0.8538    0.8234
 0.8048    0.7720
 0.7567    0.7224
 0.7104    0.6750
 0.6664    0.6304
 0.6251    0.5887
 0.5867    0.5500
 0.5509    0.5142
 0.5180    0.4813
 0.4875    0.4509
 0.4597    0.4232
 0.4341    0.3977
 0.4107    0.3745
 0.3894    0.3532
 0.3699    0.3339
 0.3522    0.3162
 0.3360    0.3001
 0.3212    0.2853
 0.3078    0.2718
 0.2955    0.2594
 0.2844    0.2482
 0.2742    0.2378
 0.2649    0.2282
 0.2565    0.2195
 0.2488    0.2113
 0.2418    0.2038
 0.2356    0.1971
 0.2298    0.1907
 0.2249    0.1849
 0.2204    0.1796
 0.2167    0.1749
 0.2133    0.1704
 0.2109    0.1667
 0.2088    0.1633
 0.2077    0.1605
 0.2070    0.1581
 0.2073    0.1564
 0.2084    0.1552
 0.2102    0.1544
 0.2131    0.1544
 0.2171    0.1549
 0.2219    0.1559
 0.2283    0.1578
 0.2361    0.1603
 0.2456    0.1635
 0.2568    0.1671
 0.2707    0.1714
 0.2879    0.1759
 0.3081    0.1798
 0.3348    0.1830
 0.3694    0.1849
 0.4169    0.1841
 0.4585    0.1817


Reynolds = 9000000   Mach =    0  NCrit = 9.0
Alpha,Cd,Cl,Cm,XTr1,XTr2,TEHMom,Cpmn
 12.500       0.011     1.379     0.002     0.009     1.000    0.0000  -8.5621
 Cpi          Cpv
-----------------
 0.4563    0.1851
 0.3988    0.1843
 0.3372    0.1817
 0.2878    0.1770
 0.2451    0.1704
 0.2078    0.1617
 0.1724    0.1508
 0.1392    0.1377
 0.1079    0.1223
 0.0774    0.1047
 0.0478    0.0850
 0.0185    0.0632
-0.0098    0.0398
-0.0382    0.0149
-0.0664   -0.0113
-0.0945   -0.0385
-0.1227   -0.0665
-0.1512   -0.0953
-0.1796   -0.1245
-0.2089   -0.1544
-0.2383   -0.1847
-0.2686   -0.2157
-0.2992   -0.2472
-0.3312   -0.2796
-0.3637   -0.3127
-0.3976   -0.3469
-0.4324   -0.3820
-0.4691   -0.4184
-0.5068   -0.4561
-0.5463   -0.4953
-0.5878   -0.5362
-0.6311   -0.5788
-0.6766   -0.6235
-0.7245   -0.6703
-0.7747   -0.7193
-0.8278   -0.7710
-0.8838   -0.8253
-0.9428   -0.8826
-1.0057   -0.9433
-1.0722   -1.0074
-1.1428   -1.0755
-1.2179   -1.1477
-1.2983   -1.2247
-1.3848   -1.3075
-1.4770   -1.3957
-1.5774   -1.4913
-1.6859   -1.5945
-1.8048   -1.7073
-1.9355   -1.8309
-2.0797   -1.9671
-2.2409   -2.1190
-2.4236   -2.2904
-2.6303   -2.4841
-2.8690   -2.7069
-3.1474   -2.9659
-3.4749   -3.2695
-3.8671   -3.6314
-4.3414   -4.0660
-4.9213   -4.5907
-5.6332   -5.2186
-6.4976   -5.9729
-7.5160   -7.1258
-8.5750   -7.9094
-9.3599   -8.5621
-9.1975   -8.3468
-7.6534   -6.8649
-5.3044   -4.6628
-2.9243   -2.4704
-1.1666   -0.8747
-0.0959    0.0818
 0.4971    0.6003
 0.8023    0.8576
 0.9443    0.9689
 0.9952    0.9997
 0.9957    0.9870
 0.9688    0.9511
 0.9275    0.9039
 0.8793    0.8516
 0.8286    0.7982
 0.7780    0.7456
 0.7289    0.6954
 0.6821    0.6477
 0.6379    0.6032
 0.5968    0.5618
 0.5586    0.5235
 0.5233    0.4883
 0.4910    0.4560
 0.4611    0.4263
 0.4340    0.3994
 0.4092    0.3747
 0.3865    0.3522
 0.3659    0.3318
 0.3472    0.3132
 0.3303    0.2963
 0.3148    0.2809
 0.3008    0.2669
 0.2881    0.2542
 0.2765    0.2426
 0.2661    0.2320
 0.2566    0.2224
 0.2480    0.2135
 0.2402    0.2054
 0.2332    0.1980
 0.2267    0.1911
 0.2211    0.1850
 0.2160    0.1792
 0.2116    0.1741
 0.2076    0.1694
 0.2045    0.1653
 0.2016    0.1615
 0.1997    0.1583
 0.1982    0.1555
 0.1975    0.1534
 0.1973    0.1516
 0.1981    0.1505
 0.1997    0.1499
 0.2020    0.1498
 0.2053    0.1504
 0.2097    0.1517
 0.2150    0.1534
 0.2219    0.1560
 0.2300    0.1593
 0.2400    0.1632
 0.2516    0.1677
 0.2660    0.1726
 0.2836    0.1775
 0.3042    0.1815
 0.3313    0.1847
 0.3663    0.1865
 0.4143    0.1864
 0.4563    0.1851


Reynolds = 9000000   Mach =    0  NCrit = 9.0
Alpha,Cd,Cl,Cm,XTr1,XTr2,TEHMom,Cpmn
 12.000       0.011     1.330     0.001     0.009     1.000    0.0000  -8.0014
 Cpi          Cpv
-----------------
 0.4542    0.1875
 0.3968    0.1867
 0.3353    0.1839
 0.2860    0.1789
 0.2435    0.1718
 0.2064    0.1626
 0.1712    0.1511
 0.1384    0.1372
 0.1073    0.1212
 0.0772    0.1029
 0.0479    0.0827
 0.0191    0.0605
-0.0088    0.0369
-0.0368    0.0118
-0.0645   -0.0143
-0.0921   -0.0412
-0.1198   -0.0689
-0.1477   -0.0971
-0.1756   -0.1258
-0.2042   -0.1550
-0.2330   -0.1846
-0.2626   -0.2149
-0.2925   -0.2456
-0.3237   -0.2771
-0.3554   -0.3094
-0.3884   -0.3426
-0.4224   -0.3767
-0.4580   -0.4122
-0.4947   -0.4488
-0.5331   -0.4869
-0.5734   -0.5267
-0.6154   -0.5680
-0.6595   -0.6114
-0.7060   -0.6568
-0.7546   -0.7043
-0.8060   -0.7544
-0.8601   -0.8070
-0.9172   -0.8624
-0.9778   -0.9210
-1.0419   -0.9830
-1.1099   -1.0486
-1.1822   -1.1182
-1.2593   -1.1924
-1.3424   -1.2720
-1.4307   -1.3566
-1.5268   -1.4483
-1.6304   -1.5472
-1.7439   -1.6551
-1.8684   -1.7731
-2.0055   -1.9030
-2.1586   -2.0476
-2.3318   -2.2106
-2.5275   -2.3944
-2.7530   -2.6055
-3.0156   -2.8505
-3.3238   -3.1372
-3.6921   -3.4781
-4.1364   -3.8866
-4.6781   -4.3780
-5.3405   -4.9624
-6.1406   -5.6586
-7.0762   -6.7497
-8.0356   -7.4264
-8.7183   -8.0014
-8.4964   -7.7366
-6.9849   -6.2837
-4.7496   -4.1835
-2.5245   -2.1267
-0.9056   -0.6531
 0.0649    0.2166
 0.5912    0.6768
 0.8532    0.8970
 0.9671    0.9840
 0.9996    0.9992
 0.9879    0.9761
 0.9529    0.9335
 0.9062    0.8817
 0.8544    0.8267
 0.8015    0.7714
 0.7494    0.7180
 0.6996    0.6672
 0.6525    0.6195
 0.6084    0.5751
 0.5675    0.5341
 0.5298    0.4964
 0.4950    0.4618
 0.4633    0.4303
 0.4342    0.4014
 0.4079    0.3752
 0.3838    0.3514
 0.3620    0.3297
 0.3422    0.3101
 0.3243    0.2924
 0.3081    0.2763
 0.2934    0.2617
 0.2802    0.2485
 0.2683    0.2366
 0.2574    0.2257
 0.2477    0.2159
 0.2389    0.2070
 0.2310    0.1988
 0.2239    0.1914
 0.2174    0.1847
 0.2116    0.1785
 0.2067    0.1730
 0.2021    0.1679
 0.1982    0.1634
 0.1949    0.1593
 0.1923    0.1559
 0.1900    0.1527
 0.1885    0.1501
 0.1875    0.1480
 0.1874    0.1465
 0.1877    0.1453
 0.1890    0.1448
 0.1910    0.1449
 0.1938    0.1455
 0.1976    0.1468
 0.2025    0.1488
 0.2081    0.1513
 0.2155    0.1548
 0.2241    0.1589
 0.2345    0.1638
 0.2465    0.1691
 0.2613    0.1746
 0.2793    0.1796
 0.3003    0.1834
 0.3278    0.1860
 0.3633    0.1874
 0.4118    0.1878
 0.4542    0.1875


Reynolds = 9000000   Mach =    0  NCrit = 9.0
Alpha,Cd,Cl,Cm,XTr1,XTr2,TEHMom,Cpmn
 11.500       0.011     1.281    -0.000     0.000     0.000    0.0000  -7.4637
 Cpi          Cpv
-----------------
 0.4523
 0.3950
 0.3335
 0.2843
 0.2420
 0.2052
 0.1702
 0.1376
 0.1069
 0.0771
 0.0482
 0.0198
-0.0077
-0.0352
-0.0625
-0.0895
-0.1167
-0.1441
-0.1713
-0.1994
-0.2275
-0.2564
-0.2856
-0.3160
-0.3469
-0.3791
-0.4121
-0.4468
-0.4824
-0.5197
-0.5589
-0.5996
-0.6424
-0.6873
-0.7344
-0.7841
-0.8363
-0.8914
-0.9498
-1.0115
-1.0770
-1.1464
-1.2204
-1.3000
-1.3845
-1.4763
-1.5751
-1.6832
-1.8016
-1.9318
-2.0769
-2.2408
-2.4256
-2.6382
-2.8853
-3.1746
-3.5197
-3.9347
-4.4391
-5.0534
-5.7912
-6.6470
-7.5105
-8.0958
-7.8189
-6.3421
-4.2196
-2.1457
-0.6611
 0.2132
 0.6757
 0.8966
 0.9840
 0.9992
 0.9762
 0.9337
 0.8821
 0.8273
 0.7724
 0.7192
 0.6689
 0.6216
 0.5777
 0.5372
 0.5001
 0.4660
 0.4350
 0.4067
 0.3812
 0.3580
 0.3370
 0.3181
 0.3010
 0.2857
 0.2718
 0.2594
 0.2482
 0.2382
 0.2292
 0.2211
 0.2139
 0.2075
 0.2017
 0.1965
 0.1922
 0.1882
 0.1850
 0.1821
 0.1801
 0.1783
 0.1775
 0.1770
 0.1774
 0.1782
 0.1799
 0.1824
 0.1857
 0.1899
 0.1953
 0.2014
 0.2092
 0.2183
 0.2290
 0.2415
 0.2567
 0.2752
 0.2966
 0.3245
 0.3604
 0.4093
 0.4523


Reynolds = 9000000   Mach =    0  NCrit = 9.0
Alpha,Cd,Cl,Cm,XTr1,XTr2,TEHMom,Cpmn
 11.000       0.010     1.233    -0.001     0.011     1.000    0.0000  -6.9427
 Cpi          Cpv
-----------------
 0.4504    0.1901
 0.3932    0.1892
 0.3318    0.1860
 0.2828    0.1804
 0.2406    0.1724
 0.2040    0.1620
 0.1693    0.1492
 0.1370    0.1341
 0.1066    0.1168
 0.0772    0.0975
 0.0487    0.0764
 0.0207    0.0537
-0.0064    0.0298
-0.0335    0.0049
-0.0602   -0.0208
-0.0868   -0.0471
-0.1135   -0.0738
-0.1403   -0.1009
-0.1669   -0.1283
-0.1944   -0.1562
-0.2218   -0.1843
-0.2501   -0.2130
-0.2785   -0.2421
-0.3081   -0.2719
-0.3383   -0.3024
-0.3696   -0.3338
-0.4016   -0.3660
-0.4353   -0.3995
-0.4700   -0.4341
-0.5062   -0.4699
-0.5441   -0.5074
-0.5836   -0.5463
-0.6250   -0.5870
-0.6685   -0.6297
-0.7140   -0.6743
-0.7620   -0.7211
-0.8124   -0.7703
-0.8655   -0.8220
-0.9218   -0.8767
-0.9811   -0.9343
-1.0440   -0.9952
-1.1106   -1.0596
-1.1815   -1.1281
-1.2576   -1.2014
-1.3383   -1.2792
-1.4259   -1.3633
-1.5200   -1.4536
-1.6228   -1.5519
-1.7352   -1.6591
-1.8585   -1.7767
-1.9957   -1.9071
-2.1505   -2.0538
-2.3247   -2.2185
-2.5246   -2.4070
-2.7565   -2.6249
-3.0275   -2.8788
-3.3498   -3.1793
-3.7363   -3.5374
-4.2044   -3.9652
-4.7720   -4.4717
-5.4496   -5.0738
-6.2283   -5.9659
-6.9999   -6.5287
-7.4925   -6.9427
-7.1651   -6.5854
-5.7253   -5.1958
-3.7144   -3.2929
-1.7880   -1.4975
-0.4331   -0.2536
 0.3488    0.4523
 0.7505    0.8050
 0.9324    0.9562
 0.9948    0.9993
 0.9940    0.9861
 0.9605    0.9447
 0.9113    0.8904
 0.8554    0.8311
 0.7978    0.7715
 0.7413    0.7136
 0.6873    0.6589
 0.6367    0.6078
 0.5895    0.5604
 0.5459    0.5169
 0.5060    0.4770
 0.4695    0.4408
 0.4362    0.4077
 0.4061    0.3778
 0.3786    0.3506
 0.3540    0.3263
 0.3317    0.3043
 0.3116    0.2844
 0.2936    0.2666
 0.2775    0.2506
 0.2630    0.2363
 0.2500    0.2234
 0.2384    0.2119
 0.2281    0.2016
 0.2188    0.1923
 0.2106    0.1841
 0.2033    0.1766
 0.1967    0.1699
 0.1910    0.1640
 0.1859    0.1587
 0.1814    0.1539
 0.1777    0.1498
 0.1743    0.1460
 0.1717    0.1429
 0.1694    0.1401
 0.1680    0.1380
 0.1668    0.1361
 0.1664    0.1348
 0.1665    0.1340
 0.1674    0.1338
 0.1687    0.1340
 0.1709    0.1349
 0.1739    0.1365
 0.1777    0.1386
 0.1824    0.1416
 0.1882    0.1454
 0.1948    0.1498
 0.2030    0.1555
 0.2125    0.1619
 0.2237    0.1687
 0.2367    0.1748
 0.2523    0.1791
 0.2711    0.1815
 0.2929    0.1829
 0.3213    0.1838
 0.3576    0.1844
 0.4069    0.1848
 0.4504    0.1901


Reynolds = 9000000   Mach =    0  NCrit = 9.0
Alpha,Cd,Cl,Cm,XTr1,XTr2,TEHMom,Cpmn
 10.500       0.009     1.174    -0.000     0.013     0.999    0.0000  -6.3913
 Cpi          Cpv
-----------------
 0.4485    0.1977
 0.3915    0.1968
 0.3302    0.1934
 0.2813    0.1874
 0.2393    0.1789
 0.2030    0.1679
 0.1685    0.1544
 0.1366    0.1386
 0.1065    0.1207
 0.0774    0.1008
 0.0493    0.0791
 0.0217    0.0561
-0.0049    0.0320
-0.0316    0.0070
-0.0579   -0.0186
-0.0839   -0.0447
-0.1100   -0.0711
-0.1363   -0.0978
-0.1624   -0.1246
-0.1892   -0.1519
-0.2159   -0.1794
-0.2435   -0.2074
-0.2712   -0.2357
-0.3001   -0.2648
-0.3294   -0.2945
-0.3599   -0.3250
-0.3910   -0.3563
-0.4238   -0.3888
-0.4574   -0.4223
-0.4925   -0.4571
-0.5292   -0.4934
-0.5674   -0.5310
-0.6075   -0.5704
-0.6496   -0.6116
-0.6935   -0.6547
-0.7398   -0.6998
-0.7884   -0.7472
-0.8395   -0.7970
-0.8936   -0.8495
-0.9506   -0.9048
-1.0109   -0.9632
-1.0747   -1.0249
-1.1425   -1.0904
-1.2153   -1.1604
-1.2923   -1.2345
-1.3757   -1.3145
-1.4652   -1.4003
-1.5627   -1.4935
-1.6691   -1.5950
-1.7857   -1.7060
-1.9153   -1.8289
-2.0611   -1.9669
-2.2248   -2.1215
-2.4123   -2.2980
-2.6294   -2.5016
-2.8824   -2.7380
-3.1825   -3.0167
-3.5413   -3.3460
-3.9742   -3.7344
-4.4965   -4.2029
-5.1158   -4.8247
-5.8204   -5.5170
-6.5039   -6.0611
-6.9087   -6.3913
-6.5354   -5.9889
-5.1345   -4.6385
-3.2342   -2.8409
-1.4514   -1.1839
-0.2218   -0.0584
 0.4716    0.5631
 0.8155    0.8615
 0.9606    0.9780
 0.9997    0.9993
 0.9839    0.9722
 0.9410    0.9222
 0.8857    0.8623
 0.8259    0.7997
 0.7661    0.7380
 0.7083    0.6793
 0.6537    0.6240
 0.6030    0.5731
 0.5561    0.5262
 0.5131    0.4832
 0.4738    0.4442
 0.4382    0.4088
 0.4057    0.3766
 0.3765    0.3478
 0.3500    0.3216
 0.3264    0.2982
 0.3051    0.2772
 0.2859    0.2583
 0.2689    0.2415
 0.2536    0.2264
 0.2401    0.2131
 0.2280    0.2011
 0.2173    0.1905
 0.2078    0.1810
 0.1993    0.1725
 0.1919    0.1651
 0.1853    0.1584
 0.1795    0.1525
 0.1745    0.1473
 0.1701    0.1426
 0.1662    0.1385
 0.1632    0.1350
 0.1604    0.1319
 0.1584    0.1293
 0.1568    0.1271
 0.1559    0.1255
 0.1552    0.1242
 0.1554    0.1235
 0.1560    0.1231
 0.1575    0.1234
 0.1593    0.1241
 0.1620    0.1254
 0.1655    0.1273
 0.1697    0.1298
 0.1749    0.1330
 0.1812    0.1370
 0.1882    0.1416
 0.1969    0.1471
 0.2069    0.1532
 0.2185    0.1595
 0.2319    0.1652
 0.2479    0.1695
 0.2672    0.1722
 0.2894    0.1739
 0.3181    0.1751
 0.3549    0.1759
 0.4047    0.1871
 0.4485    0.1977


Reynolds = 9000000   Mach =    0  NCrit = 9.0
Alpha,Cd,Cl,Cm,XTr1,XTr2,TEHMom,Cpmn
 10.000       0.009     1.113     0.001     0.014     0.997    0.0000  -5.8465
 Cpi          Cpv
-----------------
 0.4468    0.2043
 0.3899    0.2034
 0.3287    0.1998
 0.2799    0.1935
 0.2382    0.1846
 0.2020    0.1731
 0.1679    0.1592
 0.1362    0.1428
 0.1065    0.1244
 0.0777    0.1040
 0.0500    0.0821
 0.0228    0.0588
-0.0033    0.0346
-0.0295    0.0097
-0.0553   -0.0157
-0.0809   -0.0415
-0.1065   -0.0675
-0.1322   -0.0937
-0.1576   -0.1200
-0.1838   -0.1467
-0.2099   -0.1736
-0.2368   -0.2009
-0.2638   -0.2285
-0.2919   -0.2568
-0.3204   -0.2856
-0.3500   -0.3153
-0.3802   -0.3457
-0.4120   -0.3772
-0.4446   -0.4097
-0.4786   -0.4434
-0.5142   -0.4785
-0.5511   -0.5149
-0.5898   -0.5529
-0.6305   -0.5927
-0.6729   -0.6342
-0.7174   -0.6777
-0.7642   -0.7233
-0.8134   -0.7711
-0.8654   -0.8216
-0.9201   -0.8746
-0.9778   -0.9304
-1.0388   -0.9894
-1.1036   -1.0519
-1.1731   -1.1186
-1.2463   -1.1890
-1.3256   -1.2650
-1.4105   -1.3462
-1.5029   -1.4343
-1.6035   -1.5301
-1.7135   -1.6346
-1.8354   -1.7501
-1.9725   -1.8794
-2.1259   -2.0240
-2.3014   -2.1886
-2.5039   -2.3781
-2.7393   -2.5973
-3.0179   -2.8548
-3.3497   -3.1572
-3.7484   -3.5107
-4.2269   -3.9330
-4.7900   -4.5575
-5.4232   -5.0976
-6.0227   -5.5923
-6.3445   -5.8465
-5.9298   -5.4060
-4.5700   -4.0972
-2.7792   -2.4075
-1.1362   -0.8863
-0.0271    0.1227
 0.5817    0.6630
 0.8707    0.9088
 0.9813    0.9925
 0.9986    0.9933
 0.9691    0.9534
 0.9175    0.8954
 0.8568    0.8306
 0.7938    0.7652
 0.7321    0.7018
 0.6734    0.6424
 0.6185    0.5871
 0.5680    0.5365
 0.5215    0.4902
 0.4791    0.4480
 0.4407    0.4099
 0.4060    0.3755
 0.3745    0.3444
 0.3464    0.3166
 0.3209    0.2915
 0.2983    0.2692
 0.2780    0.2492
 0.2599    0.2314
 0.2438    0.2156
 0.2295    0.2016
 0.2170    0.1892
 0.2058    0.1782
 0.1959    0.1684
 0.1873    0.1598
 0.1797    0.1522
 0.1731    0.1456
 0.1673    0.1397
 0.1622    0.1345
 0.1580    0.1300
 0.1543    0.1261
 0.1511    0.1226
 0.1487    0.1198
 0.1466    0.1173
 0.1452    0.1153
 0.1441    0.1137
 0.1438    0.1127
 0.1437    0.1119
 0.1445    0.1117
 0.1456    0.1118
 0.1476    0.1126
 0.1499    0.1137
 0.1532    0.1154
 0.1572    0.1177
 0.1619    0.1205
 0.1676    0.1240
 0.1743    0.1281
 0.1818    0.1327
 0.1909    0.1381
 0.2013    0.1438
 0.2134    0.1496
 0.2272    0.1548
 0.2436    0.1590
 0.2633    0.1620
 0.2859    0.1639
 0.3151    0.1653
 0.3522    0.1683
 0.4025    0.1950
 0.4468    0.2043


Reynolds = 9000000   Mach =    0  NCrit = 9.0
Alpha,Cd,Cl,Cm,XTr1,XTr2,TEHMom,Cpmn
  9.500       0.009     1.055     0.002     0.014     0.993    0.0000  -5.3287
 Cpi          Cpv
-----------------
 0.4451    0.2088
 0.3884    0.2079
 0.3273    0.2042
 0.2787    0.1976
 0.2371    0.1883
 0.2012    0.1765
 0.1674    0.1621
 0.1360    0.1453
 0.1066    0.1265
 0.0782    0.1058
 0.0509    0.0837
 0.0241    0.0603
-0.0016    0.0362
-0.0273    0.0115
-0.0526   -0.0137
-0.0777   -0.0390
-0.1027   -0.0646
-0.1278   -0.0903
-0.1527   -0.1160
-0.1783   -0.1421
-0.2037   -0.1683
-0.2299   -0.1949
-0.2562   -0.2218
-0.2835   -0.2493
-0.3112   -0.2773
-0.3399   -0.3061
-0.3693   -0.3355
-0.4001   -0.3661
-0.4316   -0.3975
-0.4646   -0.4301
-0.4990   -0.4641
-0.5347   -0.4993
-0.5721   -0.5360
-0.6112   -0.5744
-0.6521   -0.6143
-0.6950   -0.6562
-0.7400   -0.7000
-0.7872   -0.7459
-0.8371   -0.7943
-0.8895   -0.8451
-0.9447   -0.8985
-1.0030   -0.9548
-1.0648   -1.0143
-1.1309   -1.0778
-1.2005   -1.1447
-1.2757   -1.2167
-1.3561   -1.2935
-1.4434   -1.3767
-1.5383   -1.4669
-1.6418   -1.5651
-1.7563   -1.6734
-1.8847   -1.7944
-2.0281   -1.9293
-2.1917   -2.0825
-2.3801   -2.2584
-2.5984   -2.4612
-2.8559   -2.6987
-3.1616   -2.9763
-3.5271   -3.2972
-3.9633   -3.6748
-4.4723   -4.2780
-5.0371   -4.7079
-5.5563   -5.1456
-5.8001   -5.3287
-5.3485   -4.8553
-4.0319   -3.5894
-2.3495   -2.0051
-0.8423   -0.6139
 0.1508    0.2847
 0.6790    0.7488
 0.9162    0.9459
 0.9943    0.9994
 0.9915    0.9814
 0.9495    0.9301
 0.8902    0.8651
 0.8247    0.7961
 0.7590    0.7284
 0.6958    0.6640
 0.6365    0.6042
 0.5817    0.5491
 0.5315    0.4991
 0.4857    0.4535
 0.4442    0.4123
 0.4067    0.3752
 0.3730    0.3420
 0.3426    0.3120
 0.3156    0.2854
 0.2912    0.2614
 0.2697    0.2403
 0.2505    0.2215
 0.2334    0.2047
 0.2184    0.1900
 0.2052    0.1770
 0.1936    0.1656
 0.1834    0.1556
 0.1744    0.1468
 0.1667    0.1391
 0.1599    0.1323
 0.1542    0.1265
 0.1492    0.1215
 0.1449    0.1171
 0.1414    0.1134
 0.1384    0.1101
 0.1359    0.1074
 0.1342    0.1052
 0.1327    0.1033
 0.1320    0.1020
 0.1315    0.1010
 0.1318    0.1006
 0.1323    0.1003
 0.1336    0.1007
 0.1353    0.1013
 0.1378    0.1026
 0.1407    0.1041
 0.1444    0.1063
 0.1489    0.1091
 0.1541    0.1122
 0.1603    0.1160
 0.1675    0.1204
 0.1755    0.1252
 0.1851    0.1305
 0.1959    0.1360
 0.2084    0.1413
 0.2226    0.1460
 0.2395    0.1497
 0.2596    0.1525
 0.2826    0.1541
 0.3121    0.1647
 0.3497    0.1930
 0.4003    0.2075
 0.4451    0.2088


Reynolds = 9000000   Mach =    0  NCrit = 9.0
Alpha,Cd,Cl,Cm,XTr1,XTr2,TEHMom,Cpmn
  9.000       0.008     0.999     0.002     0.015     0.986    0.0000  -4.8453
 Cpi          Cpv
-----------------
 0.4435    0.2109
 0.3870    0.2100
 0.3259    0.2062
 0.2775    0.1993
 0.2362    0.1898
 0.2006    0.1775
 0.1670    0.1627
 0.1359    0.1456
 0.1069    0.1264
 0.0789    0.1055
 0.0520    0.0833
 0.0256    0.0599
 0.0003    0.0360
-0.0250    0.0115
-0.0498   -0.0132
-0.0743   -0.0381
-0.0988   -0.0631
-0.1234   -0.0883
-0.1477   -0.1134
-0.1726   -0.1388
-0.1974   -0.1643
-0.2229   -0.1902
-0.2484   -0.2162
-0.2750   -0.2430
-0.3019   -0.2701
-0.3297   -0.2980
-0.3582   -0.3266
-0.3880   -0.3562
-0.4185   -0.3866
-0.4504   -0.4181
-0.4836   -0.4509
-0.5181   -0.4848
-0.5541   -0.5203
-0.5919   -0.5572
-0.6312   -0.5957
-0.6724   -0.6360
-0.7156   -0.6781
-0.7609   -0.7221
-0.8087   -0.7685
-0.8588   -0.8171
-0.9116   -0.8681
-0.9672   -0.9218
-1.0260   -0.9785
-1.0888   -1.0389
-1.1548   -1.1024
-1.2260   -1.1705
-1.3020   -1.2432
-1.3843   -1.3216
-1.4735   -1.4065
-1.5707   -1.4987
-1.6779   -1.6001
-1.7978   -1.7132
-1.9314   -1.8388
-2.0834   -1.9813
-2.2581   -2.1442
-2.4597   -2.3315
-2.6967   -2.5501
-2.9770   -2.8043
-3.3105   -3.0966
-3.7058   -3.4384
-4.1627   -3.9866
-4.6620   -4.3527
-5.1051   -4.7291
-5.2757   -4.8453
-4.7918   -4.3450
-3.5204   -3.1212
-1.9452   -1.6390
-0.5700   -0.3693
 0.3119    0.4260
 0.7635    0.8202
 0.9518    0.9726
 0.9998    0.9989
 0.9784    0.9643
 0.9251    0.9031
 0.8589    0.8320
 0.7895    0.7599
 0.7215    0.6902
 0.6573    0.6253
 0.5978    0.5654
 0.5432    0.5109
 0.4936    0.4616
 0.4487    0.4170
 0.4081    0.3769
 0.3718    0.3410
 0.3392    0.3089
 0.3100    0.2802
 0.2842    0.2547
 0.2610    0.2320
 0.2407    0.2121
 0.2226    0.1944
 0.2067    0.1788
 0.1927    0.1652
 0.1806    0.1533
 0.1700    0.1429
 0.1608    0.1339
 0.1528    0.1260
 0.1460    0.1193
 0.1401    0.1134
 0.1352    0.1085
 0.1310    0.1043
 0.1275    0.1006
 0.1248    0.0977
 0.1225    0.0952
 0.1208    0.0932
 0.1197    0.0918
 0.1189    0.0905
 0.1188    0.0899
 0.1190    0.0895
 0.1199    0.0897
 0.1209    0.0900
 0.1228    0.0910
 0.1251    0.0922
 0.1281    0.0940
 0.1315    0.0961
 0.1358    0.0988
 0.1408    0.1020
 0.1465    0.1057
 0.1531    0.1098
 0.1608    0.1145
 0.1692    0.1194
 0.1793    0.1247
 0.1905    0.1299
 0.2035    0.1346
 0.2181    0.1385
 0.2354    0.1412
 0.2559    0.1422
 0.2793    0.1758
 0.3093    0.2006
 0.3473    0.2156
 0.3983    0.2187
 0.4435    0.2109


Reynolds = 9000000   Mach =    0  NCrit = 9.0
Alpha,Cd,Cl,Cm,XTr1,XTr2,TEHMom,Cpmn
  8.500       0.008     0.948     0.001     0.019     0.972    0.0000  -4.3989
 Cpi          Cpv
-----------------
 0.4421    0.2112
 0.3856    0.2103
 0.3247    0.2063
 0.2765    0.1992
 0.2354    0.1892
 0.2000    0.1765
 0.1667    0.1612
 0.1360    0.1436
 0.1073    0.1242
 0.0797    0.1030
 0.0531    0.0807
 0.0272    0.0575
 0.0023    0.0338
-0.0224    0.0097
-0.0468   -0.0146
-0.0708   -0.0390
-0.0948   -0.0634
-0.1187   -0.0879
-0.1424   -0.1123
-0.1667   -0.1370
-0.1909   -0.1617
-0.2157   -0.1869
-0.2405   -0.2121
-0.2663   -0.2380
-0.2923   -0.2643
-0.3193   -0.2914
-0.3469   -0.3190
-0.3758   -0.3476
-0.4053   -0.3770
-0.4360   -0.4074
-0.4681   -0.4391
-0.5013   -0.4718
-0.5360   -0.5060
-0.5724   -0.5416
-0.6102   -0.5786
-0.6498   -0.6173
-0.6912   -0.6578
-0.7346   -0.7000
-0.7803   -0.7444
-0.8281   -0.7909
-0.8785   -0.8397
-0.9314   -0.8908
-0.9872   -0.9448
-1.0468   -1.0022
-1.1093   -1.0624
-1.1766   -1.1269
-1.2481   -1.1955
-1.3255   -1.2694
-1.4092   -1.3493
-1.5001   -1.4357
-1.6002   -1.5306
-1.7119   -1.6361
-1.8359   -1.7531
-1.9766   -1.8852
-2.1377   -2.0359
-2.3232   -2.2083
-2.5404   -2.4075
-2.7960   -2.6357
-3.0985   -2.9045
-3.4545   -3.2555
-3.8613   -3.6791
-4.2981   -4.0299
-4.6690   -4.3435
-4.7714   -4.3989
-4.2598   -3.8751
-3.0357   -2.6946
-1.5666   -1.3082
-0.3191   -0.1530
 0.4562    0.5477
 0.8351    0.8777
 0.9777    0.9899
 0.9977    0.9918
 0.9594    0.9426
 0.8959    0.8728
 0.8237    0.7968
 0.7510    0.7221
 0.6813    0.6512
 0.6165    0.5861
 0.5571    0.5265
 0.5030    0.4727
 0.4544    0.4244
 0.4105    0.3809
 0.3711    0.3420
 0.3360    0.3074
 0.3047    0.2766
 0.2768    0.2492
 0.2522    0.2250
 0.2302    0.2035
 0.2112    0.1849
 0.1943    0.1684
 0.1796    0.1540
 0.1668    0.1415
 0.1557    0.1306
 0.1462    0.1214
 0.1380    0.1133
 0.1310    0.1065
 0.1251    0.1007
 0.1201    0.0957
 0.1161    0.0917
 0.1128    0.0883
 0.1101    0.0855
 0.1081    0.0834
 0.1066    0.0817
 0.1056    0.0804
 0.1053    0.0797
 0.1051    0.0792
 0.1056    0.0792
 0.1065    0.0795
 0.1080    0.0803
 0.1096    0.0813
 0.1121    0.0829
 0.1149    0.0847
 0.1185    0.0872
 0.1224    0.0899
 0.1272    0.0932
 0.1327    0.0969
 0.1389    0.1011
 0.1460    0.1057
 0.1542    0.1107
 0.1631    0.1157
 0.1736    0.1207
 0.1853    0.1252
 0.1987    0.1287
 0.2138    0.1298
 0.2315    0.1588
 0.2524    0.1831
 0.2762    0.1979
 0.3066    0.2105
 0.3449    0.2215
 0.3964    0.2229
 0.4421    0.2112


Reynolds = 9000000   Mach =    0  NCrit = 9.0
Alpha,Cd,Cl,Cm,XTr1,XTr2,TEHMom,Cpmn
  8.000       0.007     0.895     0.000     0.021     0.956    0.0000  -3.9616
 Cpi          Cpv
-----------------
 0.4406    0.2115
 0.3844    0.2106
 0.3236    0.2065
 0.2756    0.1992
 0.2347    0.1888
 0.1996    0.1758
 0.1666    0.1601
 0.1362    0.1421
 0.1079    0.1224
 0.0806    0.1012
 0.0544    0.0789
[...]
 0.0182    0.0112
 0.0042   -0.0022
-0.0095   -0.0153
-0.0224   -0.0279
-0.0354   -0.0404
-0.0478   -0.0525
-0.0603   -0.0646
-0.0723   -0.0763
-0.0846   -0.0882
-0.0965   -0.0998
-0.1086   -0.1116
-0.1205   -0.1233
-0.1328   -0.1352
-0.1449   -0.1469
-0.1572   -0.1588
-0.1697   -0.1709
-0.1821   -0.1827
-0.1946   -0.1945
-0.2073   -0.2059
-0.2199   -0.2163
-0.2325   -0.2258
-0.2450   -0.2367
-0.2574   -0.2650
-0.2696   -0.2732
-0.2815   -0.2838
-0.2929   -0.2948
-0.3037   -0.3055
-0.3139   -0.3156
-0.3236   -0.3252
-0.3318   -0.3335
-0.3393   -0.3410
-0.3453   -0.3471
-0.3500   -0.3518
-0.3530   -0.3548
-0.3537   -0.3556
-0.3521   -0.3541
-0.3481   -0.3502
-0.3403   -0.3425
-0.3285   -0.3308
-0.3116   -0.3141
-0.2877   -0.2903
-0.2551   -0.2579
-0.2101   -0.2131
-0.1481   -0.1513
-0.0616   -0.0650
 0.0599    0.0565
 0.2284    0.2247
 0.4542    0.4507
 0.7201    0.7171
 0.9450    0.9434
 0.9859    0.9869
 0.7842    0.7884
 0.4544    0.4607
 0.1482    0.1556
-0.0780   -0.0710
-0.2290   -0.2223
-0.3274   -0.3215
-0.3904   -0.3851
-0.4305   -0.4258
-0.4559   -0.4516
-0.4712   -0.4673
-0.4799   -0.4763
-0.4833   -0.4799
-0.4831   -0.4800
-0.4803   -0.4773
-0.4747   -0.4720
-0.4677   -0.4651
-0.4592   -0.4567
-0.4492   -0.4469
-0.4380   -0.4358
-0.4261   -0.4240
-0.4131   -0.4113
-0.3998   -0.3983
-0.3854   -0.3847
-0.3709   -0.3725
-0.3560   -0.3554
-0.3409   -0.3283
-0.3255   -0.3161
-0.3099   -0.3040
-0.2945   -0.2905
-0.2791   -0.2762
-0.2638   -0.2616
-0.2487   -0.2469
-0.2336   -0.2323
-0.2187   -0.2178
-0.2042   -0.2036
-0.1897   -0.1894
-0.1755   -0.1755
-0.1616   -0.1618
-0.1475   -0.1481
-0.1340   -0.1348
-0.1203   -0.1213
-0.1068   -0.1081
-0.0931   -0.0947
-0.0797   -0.0815
-0.0659   -0.0680
-0.0522   -0.0546
-0.0380   -0.0407
-0.0239   -0.0268
-0.0091   -0.0125
 0.0061    0.0022
 0.0216    0.0172
 0.0378    0.0328
 0.0548    0.0490
 0.0722    0.0655
 0.0911    0.0829
 0.1108    0.1008
 0.1320    0.1192
 0.1546    0.1379
 0.1797    0.1567
 0.2076    0.1750
 0.2381    0.1918
 0.2749    0.2063
 0.3195    0.2170
 0.3771    0.2220
 0.4296    0.2215


Reynolds = 9000000   Mach =    0  NCrit = 9.0
Alpha,Cd,Cl,Cm,XTr1,XTr2,TEHMom,Cpmn
 -1.000       0.005    -0.114     0.000     0.437     0.276    0.0000  -0.5603
 Cpi          Cpv
-----------------
 0.4298    0.2214
 0.3783    0.2226
 0.3214    0.2178
 0.2778    0.2065
 0.2420    0.1916
 0.2125    0.1749
 0.1856    0.1569
 0.1618    0.1389
 0.1404    0.1214
 0.1205    0.1043
 0.1021    0.0880
 0.0846    0.0722
 0.0686    0.0574
 0.0531    0.0430
 0.0384    0.0291
 0.0245    0.0159
 0.0110    0.0031
-0.0021   -0.0094
-0.0144   -0.0213
-0.0268   -0.0332
-0.0386   -0.0446
-0.0504   -0.0560
-0.0617   -0.0669
-0.0733   -0.0781
-0.0845   -0.0889
-0.0958   -0.0999
-0.1069   -0.1106
-0.1183   -0.1216
-0.1295   -0.1324
-0.1408   -0.1432
-0.1523   -0.1539
-0.1637   -0.1641
-0.1751   -0.1736
-0.1866   -0.1820
-0.1980   -0.1906
-0.2093   -0.2170
-0.2204   -0.2262
-0.2312   -0.2354
-0.2418   -0.2455
-0.2520   -0.2555
-0.2616   -0.2650
-0.2704   -0.2738
-0.2785   -0.2819
-0.2860   -0.2894
-0.2918   -0.2953
-0.2967   -0.3003
-0.2998   -0.3036
-0.3015   -0.3053
-0.3010   -0.3050
-0.2981   -0.3023
-0.2925   -0.2969
-0.2840   -0.2886
-0.2713   -0.2761
-0.2540   -0.2591
-0.2310   -0.2364
-0.2002   -0.2060
-0.1600   -0.1661
-0.1066   -0.1132
-0.0354   -0.0425
 0.0603    0.0529
 0.1900    0.1823
 0.3626    0.3546
 0.5818    0.5744
 0.8201    0.8143
 0.9857    0.9838
 0.9437    0.9477
 0.6642    0.6743
 0.2886    0.3024
-0.0300   -0.0150
-0.2502   -0.2360
-0.3876   -0.3745
-0.4711   -0.4594
-0.5198   -0.5094
-0.5473   -0.5379
-0.5615   -0.5530
-0.5672   -0.5594
-0.5675   -0.5603
-0.5635   -0.5569
-0.5569   -0.5507
-0.5484   -0.5425
-0.5377   -0.5322
-0.5261   -0.5209
-0.5136   -0.5086
-0.4998   -0.4951
-0.4852   -0.4808
-0.4702   -0.4662
-0.4543   -0.4510
-0.4384   -0.4368
-0.4216   -0.4221
-0.4048   -0.3894
-0.3879   -0.3759
-0.3707   -0.3625
-0.3536   -0.3475
-0.3363   -0.3314
-0.3193   -0.3152
-0.3025   -0.2989
-0.2857   -0.2826
-0.2693   -0.2666
-0.2530   -0.2506
-0.2370   -0.2350
-0.2213   -0.2196
-0.2058   -0.2044
-0.1906   -0.1895
-0.1758   -0.1749
-0.1609   -0.1602
-0.1465   -0.1460
-0.1320   -0.1318
-0.1178   -0.1177
-0.1033   -0.1035
-0.0893   -0.0897
-0.0748   -0.0754
-0.0604   -0.0613
-0.0456   -0.0468
-0.0309   -0.0323
-0.0155   -0.0173
 0.0002   -0.0020
 0.0162    0.0137
 0.0330    0.0299
 0.0505    0.0466
 0.0684    0.0637
 0.0877    0.0816
 0.1079    0.0999
 0.1295    0.1187
 0.1525    0.1378
 0.1779    0.1568
 0.2062    0.1751
 0.2371    0.1918
 0.2742    0.2061
 0.3190    0.2166
 0.3770    0.2216
 0.4298    0.2214


Reynolds = 9000000   Mach =    0  NCrit = 9.0
Alpha,Cd,Cl,Cm,XTr1,XTr2,TEHMom,Cpmn
 -1.500       0.005    -0.170     0.000     0.478     0.236    0.0000  -0.6576
 Cpi          Cpv
-----------------
 0.4300    0.2210
 0.3788    0.2226
 0.3223    0.2179
 0.2790    0.2064
 0.2435    0.1914
 0.2144    0.1748
 0.1879    0.1570
 0.1644    0.1394
 0.1435    0.1223
 0.1240    0.1057
 0.1060    0.0899
 0.0890    0.0747
 0.0735    0.0604
 0.0584    0.0466
 0.0443    0.0334
 0.0309    0.0208
 0.0179    0.0085
 0.0054   -0.0033
-0.0063   -0.0146
-0.0181   -0.0258
-0.0293   -0.0365
-0.0404   -0.0472
-0.0510   -0.0574
-0.0619   -0.0678
-0.0723   -0.0778
-0.0829   -0.0880
-0.0932   -0.0978
-0.1038   -0.1078
-0.1141   -0.1174
-0.1244   -0.1268
-0.1349   -0.1355
-0.1453   -0.1430
-0.1556   -0.1507
-0.1660   -0.1695
-0.1760   -0.1850
-0.1860   -0.1923
-0.1958   -0.2012
-0.2051   -0.2102
-0.2142   -0.2192
-0.2227   -0.2276
-0.2305   -0.2354
-0.2374   -0.2424
-0.2435   -0.2486
-0.2487   -0.2538
-0.2522   -0.2575
-0.2545   -0.2600
-0.2549   -0.2606
-0.2536   -0.2594
-0.2499   -0.2560
-0.2435   -0.2498
-0.2340   -0.2406
-0.2213   -0.2282
-0.2039   -0.2112
-0.1815   -0.1892
-0.1527   -0.1609
-0.1157   -0.1244
-0.0684   -0.0777
-0.0075   -0.0173
 0.0716    0.0611
 0.1750    0.1641
 0.3106    0.2991
 0.4841    0.4728
 0.6925    0.6823
 0.8981    0.8912
 1.0000    0.9997
 0.8734    0.8824
 0.5179    0.5359
 0.1011    0.1240
-0.2249   -0.2010
-0.4348   -0.4125
-0.5556   -0.5354
-0.6219   -0.6039
-0.6548   -0.6388
-0.6684   -0.6540
-0.6706   -0.6576
-0.6660   -0.6541
-0.6574   -0.6464
-0.6456   -0.6355
-0.6322   -0.6227
-0.6178   -0.6088
-0.6018   -0.5934
-0.5855   -0.5775
-0.5686   -0.5611
-0.5510   -0.5441
-0.5329   -0.5267
-0.5147   -0.5101
-0.4959   -0.4954
-0.4773   -0.4589
-0.4580   -0.4432
-0.4389   -0.4281
-0.4199   -0.4114
-0.4008   -0.3936
-0.3817   -0.3755
-0.3628   -0.3572
-0.3442   -0.3391
-0.3258   -0.3212
-0.3077   -0.3034
-0.2899   -0.2861
-0.2723   -0.2688
-0.2552   -0.2520
-0.2384   -0.2355
-0.2219   -0.2192
-0.2057   -0.2033
-0.1899   -0.1877
-0.1741   -0.1722
-0.1589   -0.1571
-0.1436   -0.1420
-0.1286   -0.1272
-0.1134   -0.1123
-0.0987   -0.0976
-0.0835   -0.0827
-0.0685   -0.0679
-0.0530   -0.0527
-0.0377   -0.0375
-0.0218   -0.0219
-0.0056   -0.0060
 0.0110    0.0103
 0.0283    0.0270
 0.0463    0.0443
 0.0646    0.0620
 0.0844    0.0804
 0.1050    0.0992
 0.1271    0.1184
 0.1505    0.1377
 0.1763    0.1568
 0.2050    0.1752
 0.2362    0.1917
 0.2736    0.2058
 0.3187    0.2161
 0.3769    0.2211
 0.4300    0.2210


Reynolds = 9000000   Mach =    0  NCrit = 9.0
Alpha,Cd,Cl,Cm,XTr1,XTr2,TEHMom,Cpmn
 -2.000       0.005    -0.227     0.001     0.517     0.197    0.0000  -0.7740
 Cpi          Cpv
-----------------
 0.4303    0.2205
 0.3795    0.2224
 0.3232    0.2178
 0.2802    0.2062
 0.2451    0.1912
 0.2163    0.1747
 0.1902    0.1572
 0.1672    0.1399
 0.1466    0.1233
 0.1276    0.1072
 0.1100    0.0919
 0.0935    0.0773
 0.0785    0.0636
 0.0639    0.0504
 0.0503    0.0377
 0.0374    0.0257
 0.0250    0.0141
 0.0131    0.0029
 0.0019   -0.0077
-0.0093   -0.0182
-0.0198   -0.0282
-0.0303   -0.0382
-0.0402   -0.0477
-0.0504   -0.0573
-0.0601   -0.0666
-0.0699   -0.0758
-0.0794   -0.0846
-0.0891   -0.0934
-0.0986   -0.1015
-0.1080   -0.1086
-0.1175   -0.1153
-0.1268   -0.1249
-0.1361   -0.1481
-0.1453   -0.1535
-0.1542   -0.1612
-0.1629   -0.1695
-0.1712   -0.1776
-0.1791   -0.1855
-0.1867   -0.1930
-0.1935   -0.1999
-0.1996   -0.2060
-0.2046   -0.2112
-0.2087   -0.2154
-0.2118   -0.2186
-0.2130   -0.2200
-0.2129   -0.2201
-0.2106   -0.2181
-0.2064   -0.2142
-0.1997   -0.2077
-0.1898   -0.1982
-0.1767   -0.1855
-0.1600   -0.1691
-0.1382   -0.1478
-0.1109   -0.1211
-0.0769   -0.0876
-0.0340   -0.0454
 0.0195    0.0074
 0.0871    0.0744
 0.1729    0.1593
 0.2824    0.2685
 0.4215    0.4070
 0.5928    0.5791
 0.7863    0.7745
 0.9541    0.9477
 0.9878    0.9911
 0.7750    0.7913
 0.3452    0.3727
-0.1082   -0.0742
-0.4365   -0.4030
-0.6319   -0.6002
-0.7330   -0.7051
-0.7799   -0.7548
-0.7953   -0.7732
-0.7938   -0.7740
-0.7832   -0.7653
-0.7675   -0.7512
-0.7495   -0.7344
-0.7296   -0.7157
-0.7091   -0.6961
-0.6884   -0.6762
-0.6669   -0.6556
-0.6457   -0.6351
-0.6244   -0.6147
-0.6028   -0.5949
-0.5811   -0.5782
-0.5596   -0.5381
-0.5378   -0.5198
-0.5165   -0.5027
-0.4946   -0.4836
-0.4732   -0.4636
-0.4520   -0.4434
-0.4309   -0.4230
-0.4100   -0.4027
-0.3893   -0.3825
-0.3691   -0.3628
-0.3492   -0.3433
-0.3296   -0.3241
-0.3105   -0.3054
-0.2917   -0.2869
-0.2733   -0.2689
-0.2555   -0.2513
-0.2378   -0.2339
-0.2207   -0.2170
-0.2040   -0.2005
-0.1873   -0.1840
-0.1712   -0.1681
-0.1551   -0.1522
-0.1393   -0.1366
-0.1234   -0.1208
-0.1079   -0.1055
-0.0921   -0.0898
-0.0765   -0.0743
-0.0604   -0.0584
-0.0445   -0.0426
-0.0280   -0.0264
-0.0112   -0.0098
 0.0060    0.0071
 0.0237    0.0244
 0.0422    0.0423
 0.0611    0.0604
 0.0813    0.0793
 0.1024    0.0985
 0.1248    0.1181
 0.1486    0.1376
 0.1748    0.1569
 0.2038    0.1752
 0.2354    0.1915
 0.2731    0.2053
 0.3184    0.2155
 0.3769    0.2204
 0.4303    0.2205


Reynolds = 9000000   Mach =    0  NCrit = 9.0
Alpha,Cd,Cl,Cm,XTr1,XTr2,TEHMom,Cpmn
 -2.500       0.005    -0.283     0.001     0.558     0.161    0.0000  -0.9122
 Cpi          Cpv
-----------------
 0.4307    0.2200
 0.3802    0.2223
 0.3243    0.2177
 0.2816    0.2060
 0.2468    0.1909
 0.2184    0.1745
 0.1927    0.1573
 0.1701    0.1404
 0.1499    0.1243
 0.1313    0.1088
 0.1142    0.0941
 0.0981    0.0800
 0.0836    0.0669
 0.0695    0.0542
 0.0564    0.0422
 0.0440    0.0308
 0.0322    0.0198
 0.0208    0.0093
 0.0102   -0.0007
-0.0003   -0.0105
-0.0102   -0.0199
-0.0201   -0.0291
-0.0294   -0.0378
-0.0388   -0.0466
-0.0478   -0.0549
-0.0568   -0.0630
-0.0655   -0.0704
-0.0744   -0.0772
-0.0830   -0.0829
-0.0915   -0.0893
-0.1001   -0.1131
-0.1083   -0.1186
-0.1165   -0.1253
-0.1246   -0.1328
-0.1323   -0.1402
-0.1397   -0.1475
-0.1468   -0.1545
-0.1532   -0.1610
-0.1593   -0.1671
-0.1645   -0.1724
-0.1689   -0.1769
-0.1721   -0.1803
-0.1743   -0.1826
-0.1752   -0.1838
-0.1742   -0.1830
-0.1717   -0.1808
-0.1670   -0.1763
-0.1600   -0.1696
-0.1502   -0.1602
-0.1372   -0.1476
-0.1206   -0.1315
-0.1000   -0.1114
-0.0741   -0.0861
-0.0424   -0.0549
-0.0035   -0.0167
 0.0446    0.0307
 0.1038    0.0890
 0.1771    0.1617
 0.2684    0.2521
 0.3823    0.3657
 0.5228    0.5059
 0.6887    0.6732
 0.8631    0.8509
 0.9880    0.9837
 0.9491    0.9580
 0.6485    0.6743
 0.1462    0.1860
-0.3392   -0.2923
-0.6647   -0.6193
-0.8415   -0.7992
-0.9197   -0.8827
-0.9449   -0.9120
-0.9412   -0.9122
-0.9234   -0.8976
-0.8991   -0.8758
-0.8718   -0.8506
-0.8438   -0.8243
-0.8154   -0.7974
-0.7875   -0.7708
-0.7603   -0.7448
-0.7330   -0.7190
-0.7067   -0.6947
-0.6809   -0.6743
-0.6553   -0.6298
-0.6298   -0.6079
-0.6050   -0.5877
-0.5801   -0.5658
-0.5559   -0.5433
-0.5315   -0.5200
-0.5077   -0.4971
-0.4843   -0.4744
-0.4611   -0.4518
-0.4383   -0.4296
-0.4158   -0.4077
-0.3939   -0.3863
-0.3725   -0.3652
-0.3515   -0.3446
-0.3311   -0.3245
-0.3110   -0.3048
-0.2914   -0.2855
-0.2724   -0.2668
-0.2537   -0.2484
-0.2356   -0.2305
-0.2179   -0.2130
-0.2003   -0.1956
-0.1834   -0.1788
-0.1664   -0.1621
-0.1499   -0.1457
-0.1332   -0.1292
-0.1171   -0.1130
-0.1006   -0.0967
-0.0843   -0.0805
-0.0676   -0.0639
-0.0511   -0.0474
-0.0340   -0.0305
-0.0166   -0.0134
 0.0010    0.0041
 0.0193    0.0220
 0.0383    0.0404
 0.0576    0.0591
 0.0783    0.0785
 0.0998    0.0981
 0.1227    0.1180
 0.1469    0.1377
 0.1734    0.1570
 0.2028    0.1752
 0.2347    0.1914
 0.2727    0.2049
 0.3183    0.2148
 0.3770    0.2197
 0.4307    0.2200


Reynolds = 9000000   Mach =    0  NCrit = 9.0
Alpha,Cd,Cl,Cm,XTr1,XTr2,TEHMom,Cpmn
 -3.000       0.006    -0.340     0.001     0.601     0.132    0.0000  -1.0755
 Cpi          Cpv
-----------------
 0.4312    0.2194
 0.3810    0.2221
 0.3255    0.2177
 0.2831    0.2059
 0.2487    0.1907
 0.2206    0.1745
 0.1953    0.1576
 0.1731    0.1411
 0.1533    0.1255
 0.1351    0.1105
 0.1185    0.0963
 0.1029    0.0828
 0.0888    0.0704
 0.0753    0.0583
 0.0626    0.0469
 0.0508    0.0361
 0.0395    0.0257
 0.0287    0.0158
 0.0187    0.0066
 0.0087   -0.0026
-0.0006   -0.0112
-0.0098   -0.0197
-0.0184   -0.0275
-0.0271   -0.0353
-0.0354   -0.0422
-0.0437   -0.0485
-0.0516   -0.0536
-0.0597   -0.0593
-0.0674   -0.0785
-0.0750   -0.0879
-0.0826   -0.0932
-0.0899   -0.0997
-0.0970   -0.1064
-0.1040   -0.1132
-0.1105   -0.1196
-0.1167   -0.1258
-0.1224   -0.1315
-0.1275   -0.1367
-0.1320   -0.1413
-0.1357   -0.1451
-0.1384   -0.1480
-0.1399   -0.1496
-0.1401   -0.1501
-0.1391   -0.1493
-0.1359   -0.1464
-0.1311   -0.1419
-0.1239   -0.1350
-0.1143   -0.1257
-0.1017   -0.1136
-0.0856   -0.0979
-0.0657   -0.0786
-0.0415   -0.0550
-0.0118   -0.0258
 0.0241    0.0094
 0.0675    0.0520
 0.1203    0.1041
 0.1844    0.1673
 0.2626    0.2447
 0.3583    0.3396
 0.4749    0.4560
 0.6145    0.5959
 0.7718    0.7554
 0.9229    0.9116
 1.0000    0.9993
 0.8840    0.9005
 0.4940    0.5315
-0.0789   -0.0249
-0.5918   -0.5303
-0.9095   -0.8507
-1.0634   -1.0097
-1.1156   -1.0688
-1.1168   -1.0755
-1.0925   -1.0562
-1.0573   -1.0251
-1.0183   -0.9894
-0.9787   -0.9525
-0.9403   -0.9164
-0.9030   -0.8811
-0.8673   -0.8474
-0.8334   -0.8160
-0.8002   -0.7886
-0.7686   -0.7409
-0.7382   -0.7103
-0.7083   -0.6858
-0.6791   -0.6606
-0.6507   -0.6344
-0.6227   -0.6077
-0.5957   -0.5818
-0.5686   -0.5556
-0.5423   -0.5302
-0.5167   -0.5052
-0.4914   -0.4806
-0.4667   -0.4564
-0.4424   -0.4327
-0.4188   -0.4096
-0.3958   -0.3871
-0.3734   -0.3650
-0.3516   -0.3436
-0.3302   -0.3225
-0.3094   -0.3021
-0.2893   -0.2822
-0.2695   -0.2627
-0.2504   -0.2438
-0.2318   -0.2254
-0.2132   -0.2071
-0.1954   -0.1894
-0.1777   -0.1718
-0.1604   -0.1546
-0.1430   -0.1373
-0.1261   -0.1205
-0.1089   -0.1034
-0.0920   -0.0864
-0.0746   -0.0692
-0.0575   -0.0521
-0.0399   -0.0346
-0.0219   -0.0168
-0.0038    0.0013
 0.0150    0.0198
 0.0345    0.0387
 0.0543    0.0580
 0.0754    0.0778
 0.0974    0.0978
 0.1207    0.1179
 0.1453    0.1378
 0.1722    0.1572
 0.2019    0.1752
 0.2341    0.1912
 0.2724    0.2044
 0.3183    0.2141
 0.3772    0.2190
 0.4312    0.2194


Reynolds = 9000000   Mach =    0  NCrit = 9.0
Alpha,Cd,Cl,Cm,XTr1,XTr2,TEHMom,Cpmn
 -3.500       0.006    -0.396     0.001     0.643     0.108    0.0000  -1.2634
 Cpi          Cpv
-----------------
 0.4317    0.2189
 0.3820    0.2221
 0.3267    0.2178
 0.2847    0.2058
 0.2506    0.1906
 0.2230    0.1746
 0.1980    0.1580
 0.1762    0.1420
 0.1569    0.1269
 0.1391    0.1125
 0.1229    0.0989
 0.1078    0.0859
 0.0942    0.0741
 0.0811    0.0626
 0.0690    0.0518
 0.0577    0.0416
 0.0469    0.0319
 0.0367    0.0227
 0.0272    0.0141
 0.0179    0.0057
 0.0092   -0.0021
 0.0006   -0.0096
-0.0073   -0.0162
-0.0154   -0.0224
-0.0229   -0.0271
-0.0304   -0.0322
-0.0376   -0.0465
-0.0448   -0.0604
-0.0517   -0.0642
-0.0584   -0.0698
-0.0651   -0.0760
-0.0714   -0.0820
-0.0775   -0.0880
-0.0833   -0.0937
-0.0887   -0.0991
-0.0937   -0.1041
-0.0981   -0.1086
-0.1018   -0.1124
-0.1050   -0.1156
-0.1071   -0.1179
-0.1082   -0.1191
-0.1079   -0.1191
-0.1063   -0.1177
-0.1033   -0.1150
-0.0981   -0.1101
-0.0911   -0.1034
-0.0815   -0.0942
-0.0693   -0.0824
-0.0540   -0.0676
-0.0350   -0.0491
-0.0120   -0.0266
 0.0155    0.0003
 0.0489    0.0329
 0.0886    0.0719
 0.1360    0.1186
 0.1931    0.1748
 0.2613    0.2423
 0.3435    0.3236
 0.4423    0.4222
 0.5600    0.5395
 0.6964    0.6773
 0.8421    0.8258
 0.9656    0.9567
 0.9899    0.9945
 0.7924    0.8186
 0.3116    0.3619
-0.3302   -0.2596
-0.8660   -0.7897
-1.1707   -1.0970
-1.2976   -1.2325
-1.3207   -1.2634
-1.2958   -1.2459
-1.2492   -1.2055
-1.1954   -1.1568
-1.1409   -1.1064
-1.0883   -1.0573
-1.0390   -1.0109
-0.9923   -0.9673
-0.9486   -0.9280
-0.9077   -0.8878
-0.8684   -0.8315
-0.8314   -0.8007
-0.7961   -0.7714
-0.7619   -0.7404
-0.7287   -0.7093
-0.6969   -0.6790
-0.6656   -0.6489
-0.6357   -0.6200
-0.6059   -0.5912
-0.5771   -0.5633
-0.5492   -0.5360
-0.5218   -0.5093
-0.4951   -0.4832
-0.4690   -0.4577
-0.4437   -0.4330
-0.4192   -0.4089
-0.3952   -0.3853
-0.3720   -0.3625
-0.3493   -0.3402
-0.3274   -0.3186
-0.3061   -0.2976
-0.2852   -0.2770
-0.2651   -0.2571
-0.2455   -0.2376
-0.2260   -0.2184
-0.2074   -0.1999
-0.1888   -0.1815
-0.1707   -0.1634
-0.1525   -0.1454
-0.1350   -0.1278
-0.1171   -0.1100
-0.0995   -0.0924
-0.0815   -0.0745
-0.0638   -0.0567
-0.0456   -0.0385
-0.0271   -0.0201
-0.0084   -0.0015
 0.0109    0.0176
 0.0309    0.0371
 0.0511    0.0568
 0.0727    0.0771
 0.0951    0.0975
 0.1188    0.1179
 0.1438    0.1379
 0.1710    0.1573
 0.2011    0.1753
 0.2336    0.1910
 0.2722    0.2040
 0.3183    0.2135
 0.3775    0.2184
 0.4317    0.2189


Reynolds = 9000000   Mach =    0  NCrit = 9.0
Alpha,Cd,Cl,Cm,XTr1,XTr2,TEHMom,Cpmn
 -4.000       0.006    -0.452     0.001     0.683     0.082    0.0000  -1.4656
 Cpi          Cpv
-----------------
 0.4324    0.2180
 0.3830    0.2217
 0.3281    0.2176
 0.2864    0.2055
 0.2527    0.1903
 0.2254    0.1745
 0.2009    0.1583
 0.1794    0.1428
 0.1605    0.1283
 0.1432    0.1144
 0.1274    0.1014
 0.1128    0.0890
 0.0997    0.0778
 0.0871    0.0669
 0.0755    0.0567
 0.0647    0.0472
 0.0545    0.0382
 0.0448    0.0297
 0.0359    0.0219
 0.0272    0.0144
 0.0191    0.0077
 0.0111    0.0016
 0.0039   -0.0030
-0.0035   -0.0077
-0.0103   -0.0174
-0.0171   -0.0357
-0.0235   -0.0382
-0.0300   -0.0432
-0.0360   -0.0486
-0.0418   -0.0541
-0.0476   -0.0596
-0.0529   -0.0648
-0.0580   -0.0698
-0.0628   -0.0745
-0.0670   -0.0788
-0.0708   -0.0826
-0.0739   -0.0858
-0.0763   -0.0883
-0.0780   -0.0902
-0.0787   -0.0910
-0.0781   -0.0906
-0.0762   -0.0890
-0.0729   -0.0859
-0.0680   -0.0813
-0.0607   -0.0744
-0.0516   -0.0656
-0.0397   -0.0541
-0.0251   -0.0400
-0.0072   -0.0226
 0.0145   -0.0014
 0.0405    0.0239
 0.0711    0.0539
 0.1078    0.0898
 0.1510    0.1323
 0.2021    0.1826
 0.2628    0.2424
 0.3346    0.3136
 0.4198    0.3980
 0.5205    0.4987
 0.6377    0.6160
 0.7686    0.7490
 0.8994    0.8842
 0.9913    0.9857
 0.9577    0.9694
 0.6745    0.7127
 0.1012    0.1680
-0.6075   -0.5176
-1.1616   -1.0665
-1.4483   -1.3577
-1.5441   -1.4646
-1.5349   -1.4656
-1.4816   -1.4216
-1.4111   -1.3588
-1.3376   -1.2916
-1.2668   -1.2260
-1.2006   -1.1645
-1.1398   -1.1088
-1.0834   -1.0611
-1.0313   -0.9845
-0.9832   -0.9441
-0.9375   -0.9056
-0.8949   -0.8673
-0.8547   -0.8297
-0.8160   -0.7930
-0.7789   -0.7575
-0.7434   -0.7234
-0.7088   -0.6901
-0.6759   -0.6582
-0.6433   -0.6266
-0.6121   -0.5962
-0.5818   -0.5667
-0.5523   -0.5379
-0.5236   -0.5099
-0.4956   -0.4825
-0.4686   -0.4561
-0.4424   -0.4304
-0.4170   -0.4054
-0.3924   -0.3812
-0.3684   -0.3576
-0.3452   -0.3348
-0.3228   -0.3126
-0.3008   -0.2910
-0.2796   -0.2700
-0.2591   -0.2496
-0.2387   -0.2295
-0.2192   -0.2100
-0.1998   -0.1908
-0.1809   -0.1719
-0.1620   -0.1531
-0.1437   -0.1348
-0.1251   -0.1162
-0.1069   -0.0979
-0.0883   -0.0793
-0.0700   -0.0609
-0.0512   -0.0421
-0.0322   -0.0231
-0.0129   -0.0038
 0.0069    0.0158
 0.0274    0.0358
 0.0481    0.0560
 0.0701    0.0767
 0.0929    0.0974
 0.1170    0.1180
 0.1424    0.1382
 0.1700    0.1574
 0.2005    0.1752
 0.2333    0.1906
 0.2721    0.2034
 0.3185    0.2126
 0.3779    0.2174
 0.4324    0.2180


