xflr5 v6.43

NACA 63A-609
Reynolds =  500000   Mach =    0  NCrit = 9.0
Alpha,Cd,Cl,Cm,XTr1,XTr2,TEHMom,Cpmn
 25.000       0.373     1.118    -0.168     0.005     1.000    0.0000  -2.2328
 Cpi          Cpv
-----------------
 0.6664   -0.6896
 0.1298   -0.6902
 0.2494   -0.6912
 0.1955   -0.6925
 0.1692   -0.6943
 0.1291   -0.6965
 0.0706   -0.6993
-0.0122   -0.7027
-0.1219   -0.7067
-0.2124   -0.7115
-0.3275   -0.7171
-0.5088   -0.7236
-0.6376   -0.7311
-0.7541   -0.7398
-0.8947   -0.7497
-1.0484   -0.7610
-1.2172   -0.7738
-1.4026   -0.7881
-1.6073   -0.8043
-1.8327   -0.8223
-2.0774   -0.8424
-2.3357   -0.8648
-2.6272   -0.8897
-2.9398   -0.9171
-3.3198   -0.9473
-3.7781   -0.9805
-4.3361   -1.0168
-5.0330   -1.0567
-5.9315   -1.1007
-7.0647   -1.1497
-8.6064   -1.2051
-10.6603   -1.2693
-13.5406   -1.3475
-17.6539   -1.4500
-23.4752   -1.6045
-31.9137   -1.9625
-43.9923   -1.9627
-57.6005   -1.9562
-66.6046   -1.9513
-73.7293   -1.9620
-90.9016   -2.0060
-87.3744   -2.1506
-72.9502   -2.2328
-57.4386   -1.7399
-37.6347   -0.8049
-25.6772   -0.0413
-11.9010    0.6351
-5.5574    0.9001
-2.4654    0.9879
-0.8414    0.9977
 0.0333    0.9706
 0.5104    0.9262
 0.7739    0.8729
 0.9123    0.8168
 0.9776    0.7589
 0.9992    0.7015
 0.9945    0.6445
 0.9740    0.5887
 0.9441    0.5326
 0.9095    0.4805
 0.8734    0.4318
 0.8384    0.3886
 0.8059    0.3506
 0.7765    0.3166
 0.7504    0.2857
 0.7277    0.2578
 0.7086    0.2324
 0.6921    0.2079
 0.6779    0.1825
 0.6557    0.1356
 0.6165    0.0483
 0.5887   -0.0266
 0.5637   -0.0991
 0.5416   -0.1704
 0.5245   -0.2387
 0.5009   -0.3268
 0.4708   -0.4396
 0.4345   -0.5828
 0.4142   -0.7030
 0.2565   -1.0206
 0.6664   -0.6896


Reynolds =  500000   Mach =    0  NCrit = 9.0
Alpha,Cd,Cl,Cm,XTr1,XTr2,TEHMom,Cpmn
 24.000       0.354     1.108    -0.163     0.006     1.000    0.0000  -2.0891
 Cpi          Cpv
-----------------
 0.6598   -0.6767
 0.1149   -0.6772
 0.2376   -0.6782
 0.1841   -0.6796
 0.1585   -0.6814
 0.1191   -0.6838
 0.0612   -0.6866
-0.0210   -0.6901
-0.1300   -0.6943
-0.2193   -0.6992
-0.3329   -0.7050
-0.5125   -0.7117
-0.6388   -0.7195
-0.7523   -0.7285
-0.8894   -0.7389
-1.0389   -0.7506
-1.2027   -0.7640
-1.3821   -0.7790
-1.5797   -0.7959
-1.7966   -0.8149
-2.0314   -0.8362
-2.2780   -0.8599
-2.5557   -0.8863
-2.8521   -0.9155
-3.2122   -0.9479
-3.6458   -0.9834
-4.1728   -1.0225
-4.8301   -1.0655
-5.6762   -1.1126
-6.7410   -1.1647
-8.1876   -1.2227
-10.1107   -1.2883
-12.8029   -1.3652
-16.6400   -1.4617
-22.0573   -1.6057
-29.8939   -1.8471
-41.0841   -1.8470
-53.6351   -1.8413
-61.8543   -1.8390
-68.3288   -1.8562
-84.1340   -1.9118
-80.7477   -2.0748
-67.2644   -2.0891
-52.7871   -1.5536
-34.3997   -0.6355
-23.2942    0.0910
-10.6555    0.7013
-4.8673    0.9288
-2.0616    0.9955
-0.5991    0.9927
 0.1807    0.9578
 0.6000    0.9087
 0.8262    0.8524
 0.9403    0.7947
 0.9893    0.7358
 0.9998    0.6781
 0.9875    0.6211
 0.9617    0.5656
 0.9282    0.5101
 0.8914    0.4588
 0.8538    0.4111
 0.8181    0.3692
 0.7856    0.3326
 0.7564    0.3000
 0.7309    0.2707
 0.7089    0.2442
 0.6905    0.2202
 0.6749    0.1971
 0.6615    0.1730
 0.6396    0.1272
 0.6000    0.0410
 0.5723   -0.0327
 0.5477   -0.1039
 0.5260   -0.1739
 0.5094   -0.2407
 0.4861   -0.3271
 0.4562   -0.4379
 0.4199   -0.5783
 0.4001   -0.6947
 0.2400   -0.9964
 0.6598   -0.6767


Reynolds =  500000   Mach =    0  NCrit = 9.0
Alpha,Cd,Cl,Cm,XTr1,XTr2,TEHMom,Cpmn
 23.000       0.334     1.094    -0.156     0.007     1.000    0.0000  -2.0873
 Cpi          Cpv
-----------------
 0.6534   -0.6575
 0.1003   -0.6581
 0.2262   -0.6591
 0.1730   -0.6606
 0.1482   -0.6624
 0.1095   -0.6648
 0.0523   -0.6677
-0.0292   -0.6713
-0.1375   -0.6756
-0.2255   -0.6806
-0.3376   -0.6866
-0.5153   -0.6935
-0.6390   -0.7015
-0.7495   -0.7108
-0.8829   -0.7214
-1.0282   -0.7335
-1.1868   -0.7473
-1.3603   -0.7629
-1.5507   -0.7805
-1.7591   -0.8002
-1.9839   -0.8224
-2.2189   -0.8472
-2.4828   -0.8748
-2.7631   -0.9056
-3.1035   -0.9396
-3.5127   -0.9773
-4.0091   -1.0188
-4.6272   -1.0645
-5.4217   -1.1150
-6.4192   -1.1709
-7.7727   -1.2336
-9.5678   -1.3048
-12.0763   -1.3885
-15.6439   -1.4946
-20.6681   -1.6658
-27.9198   -1.8110
-38.2483   -1.8108
-49.7765   -1.8060
-57.2401   -1.8072
-63.0903   -1.8343
-77.5754   -1.9059
-74.3315   -2.0873
-61.7661   -2.0170
-48.2972   -1.4269
-31.2856   -0.5070
-21.0085    0.1948
-9.4666    0.7535
-4.2121    0.9502
-1.6810    0.9992
-0.3729    0.9856
 0.3163    0.9440
 0.6807    0.8909
 0.8717    0.8320
 0.9629    0.7730
 0.9967    0.7134
 0.9970    0.6555
 0.9776    0.5987
 0.9472    0.5438
 0.9104    0.4889
 0.8716    0.4386
 0.8329    0.3921
 0.7968    0.3516
 0.7644    0.3165
 0.7357    0.2855
 0.7108    0.2577
 0.6896    0.2328
 0.6721    0.2104
 0.6573    0.1887
 0.6449    0.1660
 0.6233    0.1216
 0.5834    0.0368
 0.5559   -0.0355
 0.5316   -0.1051
 0.5103   -0.1734
 0.4943   -0.2385
 0.4714   -0.3230
 0.4416   -0.4314
 0.4055   -0.5685
 0.3862   -0.6810
 0.2237   -0.9690
 0.6534   -0.6575


Reynolds =  500000   Mach =    0  NCrit = 9.0
Alpha,Cd,Cl,Cm,XTr1,XTr2,TEHMom,Cpmn
 22.000       0.313     1.076    -0.148     0.008     1.000    0.0000  -2.2630
 Cpi          Cpv
-----------------
 0.6471   -0.6314
 0.0861   -0.6320
 0.2153   -0.6330
 0.1624   -0.6344
 0.1384   -0.6363
 0.1005   -0.6387
 0.0439   -0.6417
-0.0369   -0.6453
-0.1442   -0.6496
-0.2310   -0.6547
-0.3415   -0.6607
-0.5172   -0.6676
-0.6382   -0.6757
-0.7456   -0.6851
-0.8754   -0.6958
-1.0162   -0.7081
-1.1697   -0.7221
-1.3371   -0.7379
-1.5203   -0.7557
-1.7202   -0.7757
-1.9350   -0.7983
-2.1584   -0.8235
-2.4086   -0.8517
-2.6729   -0.8831
-2.9937   -0.9180
-3.3787   -0.9567
-3.8449   -0.9997
-4.4245   -1.0477
-5.1684   -1.1015
-6.0999   -1.1628
-7.3621   -1.2341
-9.0322   -1.3198
-11.3615   -1.4285
-14.6669   -1.5801
-19.3093   -1.8730
-25.9939   -1.9254
-35.4883   -1.9254
-46.0294   -1.9219
-52.7677   -1.9293
-58.0200   -1.9737
-71.2338   -2.0731
-68.1335   -2.2630
-56.4620   -2.0786
-43.9742   -1.4088
-28.2961   -0.4445
-18.8231    0.2543
-8.3356    0.7885
-3.5928    0.9634
-1.3242    1.0000
-0.1632    0.9779
 0.4401    0.9312
 0.7525    0.8742
 0.9104    0.8137
 0.9802    0.7529
 0.9999    0.6932
 0.9907    0.6349
 0.9650    0.5786
 0.9303    0.5242
 0.8908    0.4701
 0.8503    0.4209
 0.8107    0.3756
 0.7745    0.3365
 0.7423    0.3030
 0.7142    0.2736
 0.6901    0.2475
 0.6699    0.2242
 0.6534    0.2034
 0.6396    0.1833
 0.6281    0.1621
 0.6069    0.1192
 0.5667    0.0361
 0.5395   -0.0343
 0.5156   -0.1021
 0.4948   -0.1684
 0.4794   -0.2315
 0.4568   -0.3136
 0.4273   -0.4192
 0.3912   -0.5527
 0.3725   -0.6614
 0.2077   -0.9377
 0.6471   -0.6314


Reynolds =  500000   Mach =    0  NCrit = 9.0
Alpha,Cd,Cl,Cm,XTr1,XTr2,TEHMom,Cpmn
 21.000       0.292     1.058    -0.139     0.009     1.000    0.0000  -2.4725
 Cpi          Cpv
-----------------
 0.6410   -0.5997
 0.0724   -0.6003
 0.2047   -0.6013
 0.1522   -0.6027
 0.1291   -0.6046
 0.0919   -0.6070
 0.0361   -0.6100
-0.0439   -0.6136
-0.1503   -0.6179
-0.2357   -0.6230
-0.3445   -0.6290
-0.5181   -0.6360
-0.6365   -0.6441
-0.7407   -0.6535
-0.8667   -0.6644
-1.0031   -0.6768
-1.1514   -0.6909
-1.3126   -0.7069
-1.4885   -0.7250
-1.6799   -0.7455
-1.8847   -0.7685
-2.0966   -0.7945
-2.3330   -0.8238
-2.5816   -0.8567
-2.8830   -0.8936
-3.2442   -0.9351
-3.6806   -0.9821
-4.2222   -1.0357
-4.9164   -1.0975
-5.7833   -1.1702
-6.9564   -1.2580
-8.5046   -1.3678
-10.6595   -1.5142
-13.7103   -1.7302
-17.9825   -2.0583
-24.1185   -2.0816
-32.8075   -2.0821
-42.3985   -2.0807
-48.4425   -2.0970
-53.1242   -2.1660
-65.1168   -2.3020
-62.1613   -2.4725
-51.3587   -2.1709
-39.8235   -1.4165
-25.4348   -0.4067
-16.7404    0.3001
-7.2639    0.8146
-3.0100    0.9735
-0.9915    0.9991
 0.0297    0.9697
 0.5518    0.9186
 0.8153    0.8582
 0.9422    0.7962
 0.9921    0.7341
 0.9988    0.6742
 0.9810    0.6159
 0.9496    0.5601
 0.9112    0.5064
 0.8692    0.4531
 0.8274    0.4051
 0.7873    0.3612
 0.7511    0.3236
 0.7195    0.2918
 0.6921    0.2640
 0.6690    0.2396
 0.6497    0.2180
 0.6343    0.1989
 0.6216    0.1805
 0.6111    0.1608
 0.5905    0.1196
 0.5499    0.0386
 0.5230   -0.0298
 0.4996   -0.0955
 0.4792   -0.1596
 0.4645   -0.2204
 0.4423   -0.2999
 0.4131   -0.4023
 0.3771   -0.5318
 0.3590   -0.6369
 0.1921   -0.9026
 0.6410   -0.5997


Reynolds =  500000   Mach =    0  NCrit = 9.0
Alpha,Cd,Cl,Cm,XTr1,XTr2,TEHMom,Cpmn
 20.000       0.272     1.039    -0.131     0.009     1.000    0.0000  -2.6161
 Cpi          Cpv
-----------------
 0.6350   -0.5695
 0.0592   -0.5701
 0.1945   -0.5712
 0.1425   -0.5726
 0.1203   -0.5745
 0.0839   -0.5770
 0.0289   -0.5800
-0.0503   -0.5837
-0.1558   -0.5880
-0.2397   -0.5932
-0.3468   -0.5994
-0.5181   -0.6065
-0.6337   -0.6148
-0.7347   -0.6245
-0.8569   -0.6356
-0.9888   -0.6483
-1.1318   -0.6629
-1.2868   -0.6794
-1.4555   -0.6982
-1.6383   -0.7195
-1.8330   -0.7436
-2.0334   -0.7708
-2.2564   -0.8016
-2.4893   -0.8363
-2.7716   -0.8755
-3.1092   -0.9199
-3.5163   -0.9702
-4.0207   -1.0280
-4.6662   -1.0951
-5.4700   -1.1745
-6.5561   -1.2716
-7.9856   -1.3951
-9.9711   -1.5634
-12.7750   -1.8206
-16.6894   -2.1718
-22.2959   -2.1841
-30.2093   -2.1850
-38.8880   -2.1868
-44.2698   -2.2161
-48.4089   -2.3179
-59.2320   -2.4961
-56.4221   -2.6161
-46.4622   -2.2015
-35.8500   -1.3789
-22.7053   -0.3425
-14.7631    0.3594
-6.2527    0.8440
-2.4645    0.9832
-0.6834    0.9964
 0.2057    0.9592
 0.6514    0.9035
 0.8690    0.8401
 0.9671    0.7766
 0.9986    0.7137
 0.9934    0.6537
 0.9678    0.5957
 0.9314    0.5405
 0.8898    0.4876
 0.8458    0.4354
 0.8030    0.3886
 0.7626    0.3462
 0.7268    0.3102
 0.6958    0.2801
 0.6694    0.2542
 0.6473    0.2315
 0.6292    0.2117
 0.6150    0.1943
 0.6034    0.1775
 0.5940    0.1593
 0.5739    0.1198
 0.5331    0.0408
 0.5066   -0.0256
 0.4836   -0.0892
 0.4638   -0.1511
 0.4498   -0.2099
 0.4280   -0.2868
 0.3991   -0.3862
 0.3633   -0.5118
 0.3458   -0.6131
 0.1768   -0.8677
 0.6350   -0.5695


Reynolds =  500000   Mach =    0  NCrit = 9.0
Alpha,Cd,Cl,Cm,XTr1,XTr2,TEHMom,Cpmn
 19.000       0.251     1.025    -0.124     0.010     1.000    0.0000  -2.7175
 Cpi          Cpv
-----------------
 0.6292   -0.5410
 0.0465   -0.5416
 0.1848   -0.5427
 0.1332   -0.5442
 0.1119   -0.5463
 0.0764   -0.5488
 0.0222   -0.5520
-0.0561   -0.5558
-0.1605   -0.5605
-0.2429   -0.5660
-0.3482   -0.5724
-0.5172   -0.5800
-0.6299   -0.5888
-0.7276   -0.5991
-0.8460   -0.6110
-0.9734   -0.6247
-1.1111   -0.6404
-1.2598   -0.6583
-1.4211   -0.6787
-1.5954   -0.7019
-1.7802   -0.7283
-1.9692   -0.7582
-2.1786   -0.7921
-2.3961   -0.8304
-2.6595   -0.8736
-2.9739   -0.9222
-3.3523   -0.9771
-3.8202   -1.0392
-4.4181   -1.1101
-5.1602   -1.1920
-6.1617   -1.2890
-7.4759   -1.4074
-9.2973   -1.5611
-11.8624   -1.7882
-15.4315   -2.2403
-20.5282   -2.2476
-27.6966   -2.2493
-35.5023   -2.2560
-40.2548   -2.3048
-43.8797   -2.4504
-53.5864   -2.6739
-50.9230   -2.7175
-41.7786   -2.1952
-32.0587   -1.3161
-20.1108   -0.2658
-12.8936    0.4233
-5.3035    0.8730
-1.9569    0.9910
-0.4002    0.9917
 0.3646    0.9468
 0.7386    0.8869
 0.9136    0.8208
 0.9851    0.7561
 0.9998    0.6926
 0.9837    0.6327
 0.9512    0.5751
 0.9105    0.5207
 0.8662    0.4688
 0.8206    0.4178
 0.7772    0.3724
 0.7367    0.3315
 0.7014    0.2973
 0.6714    0.2689
 0.6461    0.2447
 0.6252    0.2239
 0.6084    0.2058
 0.5954    0.1901
 0.5851    0.1749
 0.5768    0.1582
 0.5573    0.1204
 0.5163    0.0434
 0.4902   -0.0211
 0.4677   -0.0827
 0.4485   -0.1426
 0.4351   -0.1993
 0.4139   -0.2739
 0.3853   -0.3704
 0.3497   -0.4922
 0.3328   -0.5895
 0.1618   -0.8304
 0.6292   -0.5410


Reynolds =  500000   Mach =    0  NCrit = 9.0
Alpha,Cd,Cl,Cm,XTr1,XTr2,TEHMom,Cpmn
 18.000       0.234     1.005    -0.117     0.011     1.000    0.0000  -2.5800
 Cpi          Cpv
-----------------
 0.6236   -0.5123
 0.0342   -0.5129
 0.1755   -0.5140
 0.1244   -0.5156
 0.1041   -0.5176
 0.0694   -0.5203
 0.0161   -0.5235
-0.0613   -0.5275
-0.1645   -0.5323
-0.2454   -0.5379
-0.3488   -0.5446
-0.5154   -0.5525
-0.6252   -0.5617
-0.7195   -0.5724
-0.8340   -0.5848
-0.9568   -0.5992
-1.0891   -0.6157
-1.2316   -0.6346
-1.3856   -0.6562
-1.5513   -0.6809
-1.7262   -0.7092
-1.9038   -0.7414
-2.0999   -0.7781
-2.3021   -0.8197
-2.5469   -0.8668
-2.8385   -0.9201
-3.1887   -0.9802
-3.6208   -1.0483
-4.1722   -1.1258
-4.8543   -1.2144
-5.7735   -1.3178
-6.9761   -1.4412
-8.6386   -1.5969
-10.9735   -1.8295
-14.2103   -2.0728
-18.8177   -2.0789
-25.2727   -2.0807
-32.2455   -2.0920
-36.4022   -2.1591
-39.5422   -2.3381
-48.1871   -2.5800
-45.6706   -2.5496
-37.3136   -1.9773
-28.4541   -1.1064
-17.6546   -0.1088
-11.1342    0.5268
-4.4172    0.9118
-1.4878    0.9980
-0.1424    0.9821
 0.5060    0.9285
 0.8134    0.8642
 0.9490    0.7957
 0.9960    0.7303
 0.9955    0.6669
 0.9698    0.6076
 0.9313    0.5509
 0.8868    0.4977
 0.8404    0.4472
 0.7936    0.3976
 0.7498    0.3539
 0.7097    0.3148
 0.6752    0.2825
 0.6462    0.2561
 0.6222    0.2339
 0.6026    0.2150
 0.5872    0.1988
 0.5756    0.1849
 0.5666    0.1714
 0.5595    0.1564
 0.5406    0.1202
 0.4995    0.0454
 0.4738   -0.0171
 0.4519   -0.0767
 0.4333   -0.1346
 0.4207   -0.1892
 0.3999   -0.2614
 0.3717   -0.3550
 0.3364   -0.4731
 0.3202   -0.5669
 0.1473   -0.7972
 0.6236   -0.5123


Reynolds =  500000   Mach =    0  NCrit = 9.0
Alpha,Cd,Cl,Cm,XTr1,XTr2,TEHMom,Cpmn
 17.000       0.214     0.985    -0.105     0.014     1.000    0.0000  -2.9217
 Cpi          Cpv
-----------------
 0.6182   -0.4705
 0.0225   -0.4712
 0.1667   -0.4723
 0.1162   -0.4738
 0.0967   -0.4759
 0.0629   -0.4785
 0.0105   -0.4817
-0.0658   -0.4856
-0.1678   -0.4903
-0.2471   -0.4960
-0.3485   -0.5026
-0.5126   -0.5104
-0.6194   -0.5195
-0.7104   -0.5302
-0.8209   -0.5425
-0.9391   -0.5568
-1.0660   -0.5733
-1.2022   -0.5923
-1.3489   -0.6141
-1.5061   -0.6391
-1.6710   -0.6678
-1.8374   -0.7008
-2.0203   -0.7387
-2.2074   -0.7822
-2.4339   -0.8321
-2.7032   -0.8894
-3.0257   -0.9556
-3.4229   -1.0329
-3.9290   -1.1245
-4.5528   -1.2354
-5.3922   -1.3748
-6.4867   -1.5587
-7.9961   -1.8263
-10.1095   -2.2236
-13.0274   -2.2613
-17.1664   -2.2674
-22.9404   -2.2704
-29.1215   -2.2919
-32.7168   -2.3999
-35.4017   -2.6439
-43.0405   -2.9217
-40.6713   -2.7997
-33.0726   -2.1136
-25.0407   -1.1597
-15.3396   -0.1094
-9.4870    0.5432
-3.5950    0.9218
-1.0578    0.9993
 0.0899    0.9767
 0.6300    0.9183
 0.8758    0.8509
 0.9751    0.7805
 1.0000    0.7142
 0.9858    0.6504
 0.9517    0.5913
 0.9080    0.5352
 0.8605    0.4828
 0.8124    0.4333
 0.7648    0.3850
 0.7211    0.3428
 0.6815    0.3053
 0.6480    0.2748
 0.6204    0.2503
 0.5978    0.2300
 0.5797    0.2130
 0.5657    0.1986
 0.5556    0.1865
 0.5479    0.1747
 0.5421    0.1613
 0.5239    0.1272
 0.4827    0.0550
 0.4575   -0.0050
 0.4362   -0.0620
 0.4183   -0.1173
 0.4064   -0.1694
 0.3862   -0.2386
 0.3583   -0.3285
 0.3233   -0.4420
 0.3078   -0.5322
 0.1331   -0.7538
 0.6182   -0.4705


Reynolds =  500000   Mach =    0  NCrit = 9.0
Alpha,Cd,Cl,Cm,XTr1,XTr2,TEHMom,Cpmn
 16.000       0.193     0.972    -0.095     0.015     1.000    0.0000  -3.3552
 Cpi          Cpv
-----------------
 0.6130   -0.4280
 0.0113   -0.4286
 0.1583   -0.4297
 0.1084   -0.4313
 0.0899   -0.4334
 0.0571   -0.4360
 0.0056   -0.4393
-0.0697   -0.4433
-0.1704   -0.4481
-0.2480   -0.4538
-0.3475   -0.4606
-0.5090   -0.4685
-0.6127   -0.4778
-0.7003   -0.4887
-0.8068   -0.5015
-0.9203   -0.5162
-1.0418   -0.5333
-1.1717   -0.5530
-1.3110   -0.5758
-1.4597   -0.6022
-1.6148   -0.6327
-1.7700   -0.6681
-1.9399   -0.7090
-2.1122   -0.7565
-2.3207   -0.8116
-2.5680   -0.8756
-2.8636   -0.9508
-3.2268   -1.0400
-3.6887   -1.1479
-4.2559   -1.2816
-5.0181   -1.4540
-6.0084   -1.6881
-7.3705   -2.0410
-9.2712   -2.4814
-11.8842   -2.4967
-15.5764   -2.5032
-20.7027   -2.5093
-26.1343   -2.5516
-29.2030   -2.7303
-31.4633   -3.0569
-38.1529   -3.3552
-35.9313   -3.1235
-29.0608   -2.3078
-21.8226   -1.2537
-13.1686   -0.1342
-7.9539    0.5465
-2.8378    0.9273
-0.6675    0.9998
 0.2963    0.9721
 0.7363    0.9096
 0.9255    0.8397
 0.9920    0.7675
 0.9970    0.7003
 0.9707    0.6362
 0.9294    0.5773
 0.8814    0.5218
 0.8315    0.4702
 0.7823    0.4219
 0.7343    0.3748
 0.6910    0.3341
 0.6522    0.2982
 0.6200    0.2695
 0.5938    0.2468
 0.5728    0.2284
 0.5563    0.2132
 0.5440    0.2006
 0.5353    0.1902
 0.5291    0.1801
 0.5247    0.1683
 0.5072    0.1362
 0.4660    0.0668
 0.4413    0.0092
 0.4206   -0.0452
 0.4034   -0.0979
 0.3923   -0.1474
 0.3727   -0.2136
 0.3452   -0.2999
 0.3106   -0.4088
 0.2957   -0.4949
 0.1194   -0.7055
 0.6130   -0.4280


Reynolds =  500000   Mach =    0  NCrit = 9.0
Alpha,Cd,Cl,Cm,XTr1,XTr2,TEHMom,Cpmn
 15.000       0.168     0.987    -0.084     0.016     1.000    0.0000  -3.8879
 Cpi          Cpv
-----------------
 0.6080   -0.3802
 0.0006   -0.3808
 0.1504   -0.3820
 0.1011   -0.3837
 0.0836   -0.3859
 0.0517   -0.3887
 0.0013   -0.3922
-0.0730   -0.3965
-0.1724   -0.4016
-0.2482   -0.4077
-0.3456   -0.4150
-0.5044   -0.4235
-0.6050   -0.4336
-0.6892   -0.4456
-0.7916   -0.4597
-0.9004   -0.4761
-1.0165   -0.4953
-1.1400   -0.5178
-1.2721   -0.5441
-1.4123   -0.5749
-1.5576   -0.6112
-1.7018   -0.6539
-1.8589   -0.7044
-2.0166   -0.7638
-2.2074   -0.8338
-2.4333   -0.9163
-2.7024   -1.0138
-3.0325   -1.1294
-3.4516   -1.2674
-3.9641   -1.4337
-4.6518   -1.6385
-5.5417   -1.8992
-6.7625   -2.2649
-8.4598   -2.8327
-10.7820   -2.8470
-14.0496   -2.8551
-18.5621   -2.8661
-23.2874   -2.9347
-25.8652   -3.1830
-27.7316   -3.5716
-33.5303   -3.8879
-31.4562   -3.5697
-25.2831   -2.6253
-18.8037   -1.4520
-11.1444   -0.2262
-6.5369    0.5099
-2.1467    0.9205
-0.3172    0.9997
 0.4766    0.9721
 0.8247    0.9081
 0.9627    0.8365
 0.9995    0.7630
 0.9869    0.6949
 0.9503    0.6304
 0.9028    0.5714
 0.8514    0.5162
 0.7998    0.4652
 0.7500    0.4178
 0.7021    0.3718
 0.6595    0.3323
 0.6219    0.2980
 0.5911    0.2708
 0.5666    0.2498
 0.5474    0.2330
 0.5327    0.2195
 0.5220    0.2085
 0.5150    0.1998
 0.5103    0.1912
 0.5073    0.1809
 0.4906    0.1508
 0.4493    0.0844
 0.4252    0.0296
 0.4052   -0.0222
 0.3887   -0.0723
 0.3785   -0.1192
 0.3594   -0.1822
 0.3324   -0.2645
 0.2981   -0.3683
 0.2840   -0.4493
 0.1060   -0.6435
 0.6080   -0.3802


Reynolds =  500000   Mach =    0  NCrit = 9.0
Alpha,Cd,Cl,Cm,XTr1,XTr2,TEHMom,Cpmn
 14.000       0.119     1.053    -0.058     0.012     1.000    0.0000  -5.6515
 Cpi          Cpv
-----------------
 0.6032   -0.3078
-0.0095   -0.3084
 0.1430   -0.3096
 0.0944   -0.3112
 0.0779   -0.3134
 0.0470   -0.3162
-0.0025   -0.3197
-0.0756   -0.3239
-0.1735   -0.3289
-0.2476   -0.3349
-0.3429   -0.3420
-0.4989   -0.3502
-0.5964   -0.3601
-0.6771   -0.3717
-0.7754   -0.3852
-0.8795   -0.4011
-0.9901   -0.4195
-1.1074   -0.4409
-1.2321   -0.4659
-1.3639   -0.4947
-1.4996   -0.5264
-1.6328   -0.5664
-1.7772   -0.6465
-1.9206   -0.7513
-2.0941   -0.8755
-2.2991   -1.0167
-2.5425   -1.1765
-2.8404   -1.3621
-3.2181   -1.5867
-3.6777   -1.8753
-4.2936   -2.2267
-5.0873   -2.6267
-6.1728   -3.1148
-7.6763   -3.8130
-9.7223   -4.2258
-12.5878   -4.2417
-16.5214   -4.2606
-20.5842   -4.3583
-22.7074   -4.6959
-24.2113   -5.2135
-29.1784   -5.6515
-27.2517   -5.2398
-21.7440   -3.9852
-15.9877   -2.4323
-9.2692   -0.7864
-5.2378    0.2148
-1.5224    0.8321
-0.0076    0.9882
 0.6305    0.9900
 0.8952    0.9364
 0.9871    0.8668
 0.9978    0.7926
 0.9699    0.7225
 0.9245    0.6558
 0.8722    0.5950
 0.8182    0.5383
 0.7656    0.4864
 0.7158    0.4384
 0.6682    0.3924
 0.6268    0.3532
 0.5905    0.3193
 0.5615    0.2928
 0.5389    0.2725
 0.5215    0.2567
 0.5086    0.2442
 0.4997    0.2344
 0.4945    0.2268
 0.4914    0.2195
 0.4898    0.2106
 0.4739    0.1827
 0.4327    0.1203
 0.4092    0.0689
 0.3900    0.0206
 0.3742   -0.0259
 0.3648   -0.0695
 0.3464   -0.1283
 0.3199   -0.2051
 0.2859   -0.3017
 0.2726   -0.3762
 0.0932   -0.5497
 0.6032   -0.3078


Reynolds =  500000   Mach =    0  NCrit = 9.0
Alpha,Cd,Cl,Cm,XTr1,XTr2,TEHMom,Cpmn
 10.000       0.035     1.303    -0.067     0.012     1.000    0.0000  -7.1851
 Cpi          Cpv
-----------------
 0.5862   -0.0069
-0.0441   -0.0046
 0.1183   -0.0043
 0.0727   -0.0036
 0.0604   -0.0030
 0.0337   -0.0039
-0.0114   -0.0091
-0.0794   -0.0186
-0.1712   -0.0353
-0.2378   -0.0614
-0.3241   -0.1017
-0.4680   -0.1645
-0.5525   -0.2398
-0.6191   -0.3219
-0.7008   -0.4121
-0.7858   -0.5065
-0.8746   -0.6028
-0.9668   -0.6997
-1.0628   -0.7967
-1.1615   -0.8929
-1.2596   -0.9859
-1.3509   -1.0721
-1.4468   -1.1576
-1.5360   -1.2374
-1.6444   -1.3272
-1.7710   -1.4280
-1.9191   -1.5426
-2.0985   -1.6774
-2.3246   -1.8419
-2.5928   -2.0409
-2.9512   -2.3150
-3.4028   -2.7358
-4.0121   -3.4722
-4.8394   -4.4871
-5.9326   -5.1968
-7.4254   -5.2352
-9.4047   -5.3094
-11.2727   -5.5883
-11.9499   -6.1689
-12.3257   -6.7256
-14.5777   -7.1851
-13.2354   -6.5067
-10.0563   -4.8760
-6.8175   -2.9830
-3.3032   -1.0421
-1.2486    0.1105
 0.2924    0.8099
 0.8191    0.9859
 0.9793    0.9903
 0.9967    0.9346
 0.9578    0.8627
 0.8980    0.7870
 0.8327    0.7168
 0.7688    0.6513
 0.7088    0.5929
 0.6536    0.5396
 0.6037    0.4921
 0.5588    0.4493
 0.5172    0.4094
 0.4834    0.3769
 0.4555    0.3503
 0.4356    0.3314
 0.4223    0.3188
 0.4141    0.3108
 0.4099    0.3061
 0.4092    0.3042
 0.4116    0.3042
 0.4155    0.3044
 0.4203    0.3030
 0.4082    0.2865
 0.3676    0.2422
 0.3470    0.2068
 0.3309    0.1746
 0.3184    0.1445
 0.3128    0.1169
 0.2972    0.0781
 0.2729    0.0263
 0.2408   -0.0386
 0.2308   -0.0864
 0.0465   -0.1905
 0.5862   -0.0069


Reynolds =  500000   Mach =    0  NCrit = 9.0
Alpha,Cd,Cl,Cm,XTr1,XTr2,TEHMom,Cpmn
  9.000       0.027     1.229    -0.072     0.014     1.000    0.0000  -6.0511
 Cpi          Cpv
-----------------
 0.5825    0.0000
-0.0513    0.0016
 0.1135    0.0014
 0.0687    0.0011
 0.0575    0.0009
 0.0318    0.0011
-0.0120   -0.0005
-0.0787   -0.0093
-0.1688   -0.0264
-0.2335   -0.0548
-0.3173   -0.0995
-0.4581   -0.1704
-0.5393   -0.2526
-0.6023   -0.3374
-0.6798   -0.4275
-0.7601   -0.5188
-0.8434   -0.6099
-0.9294   -0.7004
-1.0183   -0.7902
-1.1090   -0.8784
-1.1980   -0.9627
-1.2793   -1.0390
-1.3638   -1.1138
-1.4402   -1.1812
-1.5334   -1.2574
-1.6419   -1.3426
-1.7682   -1.4385
-1.9207   -1.5505
-2.1127   -1.6860
-2.3385   -1.8426
-2.6402   -2.0506
-3.0176   -2.3618
-3.5246   -2.9915
-4.2088   -4.0279
-5.1033   -4.3936
-6.3139   -4.4537
-7.8979   -4.5996
-9.3343   -4.9931
-9.7453   -5.3839
-9.9212   -5.7286
-11.6515   -6.0511
-10.4532   -5.3420
-7.7693   -3.8458
-5.0623   -2.1738
-2.2044   -0.5318
-0.5592    0.4081
 0.5727    0.9083
 0.9214    0.9998
 0.9992    0.9662
 0.9768    0.8933
 0.9187    0.8149
 0.8500    0.7370
 0.7813    0.6676
 0.7169    0.6039
 0.6580    0.5480
 0.6047    0.4975
 0.5572    0.4528
 0.5149    0.4129
 0.4758    0.3757
 0.4447    0.3461
 0.4195    0.3223
 0.4025    0.3062
 0.3921    0.2963
 0.3864    0.2908
 0.3847    0.2886
 0.3863    0.2888
 0.3908    0.2907
 0.3966    0.2927
 0.4031    0.2927
 0.3921    0.2777
 0.3517    0.2351
 0.3319    0.2010
 0.3167    0.1701
 0.3052    0.1411
 0.3005    0.1146
 0.2857    0.0770
 0.2620    0.0264
 0.2305   -0.0369
 0.2214   -0.0827
 0.0361   -0.1801
 0.5825    0.0000


Reynolds =  500000   Mach =    0  NCrit = 9.0
Alpha,Cd,Cl,Cm,XTr1,XTr2,TEHMom,Cpmn
  8.000       0.021     1.165    -0.079     0.015     1.000    0.0000  -4.9636
 Cpi          Cpv
-----------------
 0.5791    0.0208
-0.0578    0.0225
 0.1091    0.0219
 0.0652    0.0212
 0.0551    0.0203
 0.0305    0.0193
-0.0121    0.0143
-0.0774    0.0019
-0.1657   -0.0207
-0.2284   -0.0562
-0.3099   -0.1101
-0.4474   -0.1928
-0.5252   -0.2810
-0.5846   -0.3651
-0.6579   -0.4514
-0.7334   -0.5368
-0.8114   -0.6212
-0.8912   -0.7044
-0.9731   -0.7866
-1.0559   -0.8669
-1.1360   -0.9427
-1.2074   -1.0097
-1.2807   -1.0747
-1.3448   -1.1310
-1.4233   -1.1952
-1.5143   -1.2667
-1.6197   -1.3464
-1.7464   -1.4389
-1.9060   -1.5503
-2.0915   -1.6742
-2.3399   -1.8326
-2.6476   -2.0425
-3.0595   -2.5090
-3.6112   -3.5570
-4.3233   -3.6345
-5.2768   -3.7453
-6.5039   -4.0099
-7.5566   -4.4834
-7.7404   -4.6010
-7.7499   -4.7582
-9.0226   -4.9636
-7.9670   -4.2594
-5.7424   -2.9220
-3.5269   -1.4626
-1.2657   -0.1067
 0.0051    0.6418
 0.7829    0.9691
 0.9817    0.9923
 0.9922    0.9286
 0.9388    0.8456
 0.8669    0.7616
 0.7928    0.6859
 0.7231    0.6167
 0.6600    0.5571
 0.6034    0.5037
 0.5529    0.4568
 0.5084    0.4153
 0.4692    0.3786
 0.4330    0.3445
 0.4050    0.3179
 0.3828    0.2971
 0.3688    0.2840
 0.3614    0.2770
 0.3585    0.2742
 0.3594    0.2744
 0.3633    0.2770
 0.3700    0.2810
 0.3778    0.2849
 0.3860    0.2865
 0.3761    0.2735
 0.3360    0.2333
 0.3171    0.2012
 0.3028    0.1722
 0.2922    0.1452
 0.2886    0.1207
 0.2745    0.0852
 0.2515    0.0373
 0.2206   -0.0227
 0.2123   -0.0654
 0.0262   -0.1549
 0.5791    0.0208


Reynolds =  500000   Mach =    0  NCrit = 9.0
Alpha,Cd,Cl,Cm,XTr1,XTr2,TEHMom,Cpmn
  7.000       0.017     1.116    -0.089     0.020     1.000    0.0000  -3.9125
 Cpi          Cpv
-----------------
 0.5759    0.0698
-0.0637    0.0739
 0.1053    0.0717
 0.0623    0.0674
 0.0533    0.0607
 0.0298    0.0508
-0.0116    0.0357
-0.0754    0.0119
-0.1619   -0.0252
-0.2225   -0.0744
-0.3016   -0.1410
-0.4358   -0.2367
-0.5102   -0.3254
-0.5660   -0.4026
-0.6352   -0.4813
-0.7060   -0.5587
-0.7785   -0.6352
-0.8523   -0.7107
-0.9273   -0.7852
-1.0022   -0.8577
-1.0736   -0.9253
-1.1354   -0.9834
-1.1978   -1.0391
-1.2499   -1.0853
-1.3143   -1.1387
-1.3885   -1.1978
-1.4737   -1.2632
-1.5759   -1.3382
-1.7047   -1.4277
-1.8522   -1.5239
-2.0505   -1.6459
-2.2934   -1.8234
-2.6172   -2.4062
-3.0474   -2.8218
-3.5936   -2.9402
-4.3155   -3.1449
-5.2244   -3.5142
-5.9419   -3.8600
-5.9376   -3.7821
-5.8142   -3.8020
-6.6942   -3.9125
-5.7799   -3.2514
-3.9779   -2.0809
-2.2129   -0.8495
-0.4881    0.2463
 0.4436    0.8104
 0.9227    0.9974
 0.9999    0.9663
 0.9582    0.8810
 0.8827    0.7917
 0.8027    0.7067
 0.7267    0.6332
 0.6583    0.5672
 0.5980    0.5113
 0.5449    0.4618
 0.4982    0.4186
 0.4574    0.3807
 0.4218    0.3476
 0.3888    0.3167
 0.3643    0.2934
 0.3454    0.2758
 0.3347    0.2658
 0.3303    0.2619
 0.3304    0.2620
 0.3339    0.2649
 0.3403    0.2700
 0.3493    0.2764
 0.3590    0.2823
 0.3691    0.2859
 0.3603    0.2755
 0.3206    0.2390
 0.3025    0.2101
 0.2892    0.1845
 0.2796    0.1610
 0.2769    0.1402
 0.2637    0.1095
 0.2414    0.0677
 0.2111    0.0158
 0.2037   -0.0199
 0.0169   -0.0948
 0.5759    0.0698


Reynolds =  500000   Mach =    0  NCrit = 9.0
Alpha,Cd,Cl,Cm,XTr1,XTr2,TEHMom,Cpmn
  6.000       0.014     1.054    -0.097     0.063     1.000    0.0000  -3.1579
 Cpi          Cpv
-----------------
 0.5729    0.1135
-0.0690    0.1072
 0.1020    0.1016
 0.0600    0.0928
 0.0520    0.0814
 0.0297    0.0656
-0.0104    0.0430
-0.0727    0.0096
-0.1574   -0.0389
-0.2160   -0.0966
-0.2926   -0.1694
-0.4233   -0.2715
-0.4944   -0.3560
-0.5466   -0.4253
-0.6116   -0.4969
-0.6777   -0.5673
-0.7449   -0.6369
-0.8126   -0.7054
-0.8808   -0.7728
-0.9481   -0.8377
-1.0109   -0.8972
-1.0633   -0.9464
-1.1151   -0.9924
-1.1557   -1.0275
-1.2063   -1.0685
-1.2644   -1.1130
-1.3304   -1.1617
-1.4094   -1.2162
-1.5091   -1.2873
-1.6209   -1.4249
-1.7724   -1.5520
-1.9554   -1.7013
-2.1984   -1.8794
-2.5180   -2.0919
-2.9151   -2.3523
-3.4311   -2.6704
-4.0611   -3.0128
-4.4922   -3.1579
-4.3390   -2.9275
-4.1166   -2.8305
-4.6692   -2.8531
-3.8945   -2.2636
-2.4780   -1.2604
-1.1220   -0.2836
 0.1273    0.5609
 0.7558    0.9320
 0.9919    0.9930
 0.9760    0.9157
 0.8972    0.8176
 0.8086    0.7223
 0.7259    0.6426
 0.6515    0.5705
 0.5870    0.5108
 0.5312    0.4590
 0.4828    0.4145
 0.4407    0.3756
 0.4042    0.3419
 0.3727    0.3126
 0.3434    0.2854
 0.3226    0.2656
 0.3072    0.2515
 0.3000    0.2448
 0.2989    0.2440
 0.3021    0.2471
 0.3084    0.2529
 0.3173    0.2605
 0.3286    0.2691
 0.3404    0.2770
 0.3523    0.2825
 0.3447    0.2747
 0.3053    0.2419
 0.2882    0.2160
 0.2759    0.1935
 0.2673    0.1735
 0.2657    0.1563
 0.2533    0.1303
 0.2317    0.0949
 0.2020    0.0518
 0.1955    0.0246
 0.0082   -0.0308
 0.5729    0.1135


Reynolds =  500000   Mach =    0  NCrit = 9.0
Alpha,Cd,Cl,Cm,XTr1,XTr2,TEHMom,Cpmn
  5.000       0.009     1.021    -0.111     0.447     1.000    0.0000  -2.4885
 Cpi          Cpv
-----------------
 0.5702    0.1748
-0.0737    0.1501
 0.0993    0.1375
 0.0582    0.1188
 0.0514    0.0983
 0.0302    0.0728
-0.0086    0.0384
-0.0694   -0.0093
-0.1522   -0.0736
-0.2087   -0.1377
-0.2828   -0.2136
-0.4101   -0.3228
-0.4778   -0.3987
-0.5264   -0.4559
-0.5872   -0.5180
-0.6486   -0.5785
-0.7105   -0.6369
-0.7723   -0.6940
-0.8338   -0.7591
-0.8935   -0.8607
-0.9479   -0.8966
-0.9912   -0.9322
-1.0327   -0.9670
-1.0621   -0.9951
-1.0996   -1.0280
-1.1423   -1.0646
-1.1901   -1.1056
-1.2470   -1.1540
-1.3193   -1.2128
-1.3979   -1.2800
-1.5061   -1.3675
-1.6339   -1.4742
-1.8035   -1.6109
-2.0237   -1.7798
-2.2886   -1.9811
-2.6246   -2.2204
-3.0152   -2.4556
-3.2091   -2.4885
-2.9467   -2.1894
-2.6592   -2.0248
-2.9499   -1.9883
-2.3132   -1.4699
-1.2446   -0.6364
-0.2556    0.1401
 0.5799    0.7645
 0.9413    0.9893
 0.9904    0.9602
 0.9099    0.8546
 0.8094    0.7509
 0.7166    0.6564
 0.6367    0.5817
 0.5675    0.5147
 0.5091    0.4604
 0.4595    0.4137
 0.4170    0.3740
 0.3803    0.3396
 0.3490    0.3100
 0.3221    0.2846
 0.2968    0.2610
 0.2800    0.2448
 0.2684    0.2341
 0.2649    0.2308
 0.2673    0.2332
 0.2736    0.2392
 0.2828    0.2478
 0.2944    0.2580
 0.3080    0.2689
 0.3220    0.2788
 0.3357    0.2861
 0.3293    0.2815
 0.2904    0.2538
 0.2742    0.2319
 0.2630    0.2137
 0.2553    0.1984
 0.2548    0.1862
 0.2433    0.1670
 0.2224    0.1409
 0.1933    0.1110
 0.1878    0.0968
-0.0000    0.0690
 0.5702    0.1748


Reynolds =  500000   Mach =    0  NCrit = 9.0
Alpha,Cd,Cl,Cm,XTr1,XTr2,TEHMom,Cpmn
  4.000       0.007     0.949    -0.119     0.625     1.000    0.0000  -1.7690
 Cpi          Cpv
-----------------
 0.5678    0.2047
-0.0777    0.1581
 0.0971    0.1407
 0.0570    0.1150
 0.0513    0.0909
 0.0313    0.0627
-0.0062    0.0257
-0.0655   -0.0254
-0.1463   -0.0927
-0.2007   -0.1534
-0.2722   -0.2253
-0.3961   -0.3320
-0.4603   -0.3978
-0.5054   -0.4439
-0.5621   -0.5015
-0.6188   -0.5992
-0.6755   -0.6821
-0.7314   -0.7165
-0.7863   -0.7579
-0.8386   -0.8028
-0.8848   -0.8449
-0.9192   -0.8786
-0.9508   -0.9072
-0.9694   -0.9266
-0.9944   -0.9493
-1.0223   -0.9738
-1.0528   -1.0004
-1.0889   -1.0317
-1.1356   -1.0698
-1.1833   -1.1111
-1.2517   -1.1664
-1.3295   -1.2312
-1.4331   -1.3152
-1.5652   -1.4169
-1.7149   -1.5311
-1.8971   -1.6623
-2.0881   -1.7690
-2.0942   -1.6892
-1.7624   -1.3386
-1.4436   -1.1160
-1.5384   -1.0265
-1.0378   -0.5960
-0.2792    0.0175
 0.3853    0.5679
 0.8690    0.9323
 0.9999    0.9904
 0.9183    0.8762
 0.8018    0.7543
 0.6948    0.6477
 0.6068    0.5634
 0.5353    0.4950
 0.4746    0.4380
 0.4248    0.3908
 0.3831    0.3517
 0.3477    0.3183
 0.3173    0.2897
 0.2916    0.2653
 0.2698    0.2446
 0.2490    0.2253
 0.2366    0.2132
 0.2290    0.2063
 0.2294    0.2067
 0.2354    0.2125
 0.2450    0.2217
 0.2572    0.2332
 0.2715    0.2459
 0.2875    0.2588
 0.3036    0.2704
 0.3193    0.2792
 0.3141    0.2774
 0.2757    0.2539
 0.2606    0.2349
 0.2503    0.2196
 0.2437    0.2074
 0.2442    0.1986
 0.2336    0.1839
 0.2135    0.1641
 0.1851    0.1429
 0.1805    0.1370
-0.0077    0.1252
 0.5678    0.2047


Reynolds =  500000   Mach =    0  NCrit = 9.0
Alpha,Cd,Cl,Cm,XTr1,XTr2,TEHMom,Cpmn
  3.000       0.007     0.857    -0.123     0.718     1.000    0.0000  -1.1036
 Cpi          Cpv
-----------------
 0.5656    0.2166
-0.0810    0.1535
 0.0955    0.1346
 0.0564    0.1062
 0.0518    0.0824
 0.0330    0.0553
-0.0032    0.0194
-0.0609   -0.0306
-0.1398   -0.0962
-0.1921   -0.1522
-0.2610   -0.2186
-0.3813   -0.3168
-0.4421   -0.3804
-0.4837   -0.4830
-0.5362   -0.5763
-0.5883   -0.6006
-0.6398   -0.6307
-0.6899   -0.6691
-0.7383   -0.7126
-0.7833   -0.7554
-0.8216   -0.7921
-0.8474   -0.8185
-0.8693   -0.8387
-0.8777   -0.8483
-0.8906   -0.8600
-0.9046   -0.8718
-0.9187   -0.8836
-0.9354   -0.8973
-0.9582   -0.9143
-0.9776   -0.9298
-1.0097   -0.9531
-1.0424   -0.9775
-1.0875   -1.0104
-1.1429   -1.0469
-1.1946   -1.0772
-1.2495   -1.1036
-1.2809   -1.0881
-1.1490   -0.9156
-0.7874   -0.5462
-0.4715   -0.2951
-0.4366   -0.1698
-0.0700    0.1478
 0.4171    0.5548
 0.8000    0.8691
 0.9943    1.0000
 0.9315    0.8979
 0.7756    0.7301
 0.6518    0.6110
 0.5536    0.5141
 0.4794    0.4457
 0.4217    0.3905
 0.3731    0.3456
 0.3343    0.3088
 0.3021    0.2788
 0.2749    0.2532
 0.2517    0.2315
 0.2323    0.2132
 0.2161    0.1979
 0.2002    0.1833
 0.1924    0.1757
 0.1891    0.1730
 0.1935    0.1773
 0.2033    0.1867
 0.2163    0.1993
 0.2316    0.2136
 0.2486    0.2288
 0.2672    0.2435
 0.2855    0.2563
 0.3031    0.2662
 0.2992    0.2672
 0.2613    0.2480
 0.2472    0.2313
 0.2380    0.2180
 0.2325    0.2080
 0.2341    0.2014
 0.2244    0.1896
 0.2050    0.1738
 0.1773    0.1581
 0.1737    0.1569
-0.0147    0.1530
 0.5656    0.2166


Reynolds =  500000   Mach =    0  NCrit = 9.0
Alpha,Cd,Cl,Cm,XTr1,XTr2,TEHMom,Cpmn
  2.000       0.006     0.756    -0.125     0.772     1.000    0.0000  -0.7675
 Cpi          Cpv
-----------------
 0.5637    0.2211
-0.0837    0.1459
 0.0944    0.1273
 0.0563    0.0985
 0.0528    0.0763
 0.0352    0.0513
 0.0004    0.0174
-0.0557   -0.0302
-0.1326   -0.0923
-0.1827   -0.1437
-0.2490   -0.2069
-0.3657   -0.3108
-0.4231   -0.4635
-0.4612   -0.5098
-0.5096   -0.5299
-0.5571   -0.5554
-0.6035   -0.5890
-0.6479   -0.6291
-0.6899   -0.6700
-0.7279   -0.7073
-0.7583   -0.7371
-0.7759   -0.7554
-0.7885   -0.7668
-0.7870   -0.7668
-0.7885   -0.7675
-0.7892   -0.7669
-0.7880   -0.7642
-0.7866   -0.7609
-0.7874   -0.7577
-0.7809   -0.7489
-0.7802   -0.7424
-0.7730   -0.7298
-0.7671   -0.7163
-0.7573   -0.6950
-0.7284   -0.6530
-0.6825   -0.5926
-0.5946   -0.4785
-0.3745   -0.2449
-0.0230    0.1060
 0.2560    0.3458
 0.3543    0.4765
 0.5892    0.6780
 0.8434    0.8920
 0.9878    0.9971
 0.9556    0.9345
 0.7363    0.6953
 0.5625    0.5207
 0.4601    0.4244
 0.3860    0.3546
 0.3345    0.3071
 0.2961    0.2719
 0.2631    0.2419
 0.2375    0.2181
 0.2165    0.1988
 0.1987    0.1824
 0.1836    0.1684
 0.1712    0.1569
 0.1610    0.1475
 0.1503    0.1383
 0.1474    0.1355
 0.1486    0.1373
 0.1573    0.1458
 0.1710    0.1591
 0.1876    0.1750
 0.2061    0.1923
 0.2259    0.2096
 0.2470    0.2256
 0.2676    0.2388
 0.2872    0.2493
 0.2846    0.2536
 0.2473    0.2398
 0.2342    0.2255
 0.2261    0.2140
 0.2216    0.2057
 0.2244    0.2007
 0.2155    0.1913
 0.1970    0.1787
 0.1701    0.1670
 0.1674    0.1689
-0.0211    0.1696
 0.5637    0.2211


Reynolds =  500000   Mach =    0  NCrit = 9.0
Alpha,Cd,Cl,Cm,XTr1,XTr2,TEHMom,Cpmn
  1.000       0.006     0.651    -0.127     0.809     1.000    0.0000  -0.6934
 Cpi          Cpv
-----------------
 0.5620    0.2214
-0.0857    0.1383
 0.0938    0.1208
 0.0569    0.0928
 0.0545    0.0728
 0.0381    0.0500
 0.0046    0.0186
-0.0499   -0.0261
-0.1247   -0.0839
-0.1726   -0.1355
-0.2364   -0.2210
-0.3494   -0.4040
-0.4034   -0.4489
-0.4379   -0.4659
-0.4823   -0.4875
-0.5253   -0.5164
-0.5666   -0.5527
-0.6054   -0.5909
-0.6412   -0.6268
-0.6722   -0.6577
-0.6951   -0.6801
-0.7047   -0.6906
-0.7084   -0.6934
-0.6975   -0.6839
-0.6882   -0.6742
-0.6765   -0.6616
-0.6609   -0.6452
-0.6427   -0.6259
-0.6234   -0.6037
-0.5934   -0.5726
-0.5637   -0.5390
-0.5217   -0.4938
-0.4725   -0.4400
-0.4091   -0.3701
-0.3169   -0.2702
-0.1968   -0.1445
-0.0300    0.0354
 0.2282    0.2938
 0.5300    0.5882
 0.7381    0.7760
 0.8333    0.8722
 0.9388    0.9594
 0.9992    0.9998
 0.9487    0.9313
 0.7531    0.7235
 0.4143    0.3846
 0.2792    0.2392
 0.2269    0.2010
 0.1921    0.1662
 0.1722    0.1511
 0.1586    0.1398
 0.1447    0.1287
 0.1347    0.1201
 0.1264    0.1132
 0.1192    0.1072
 0.1130    0.1019
 0.1081    0.0979
 0.1046    0.0950
 0.0994    0.0914
 0.1018    0.0938
 0.1078    0.1005
 0.1209    0.1135
 0.1386    0.1309
 0.1588    0.1505
 0.1806    0.1707
 0.2034    0.1894
 0.2271    0.2048
 0.2499    0.2169
 0.2715    0.2268
 0.2702    0.2346
 0.2335    0.2303
 0.2215    0.2197
 0.2146    0.2101
 0.2112    0.2032
 0.2150    0.1994
 0.2071    0.1919
 0.1894    0.1821
 0.1632    0.1739
 0.1616    0.1777
-0.0269    0.1812
 0.5620    0.2214


Reynolds =  500000   Mach =    0  NCrit = 9.0
Alpha,Cd,Cl,Cm,XTr1,XTr2,TEHMom,Cpmn
  0.000       0.007     0.490    -0.116     0.833     0.795    0.0000  -0.5997
 Cpi          Cpv
-----------------
 0.5606    0.2627
-0.0871    0.1961
 0.0938    0.1744
 0.0580    0.1441
 0.0567    0.1197
 0.0415    0.0935
 0.0094    0.0600
-0.0434    0.0149
-0.1161   -0.0439
-0.1619   -0.1172
-0.2230   -0.2787
-0.3324   -0.3734
-0.3830   -0.3857
-0.4140   -0.4027
-0.4544   -0.4258
-0.4929   -0.4574
-0.5293   -0.4934
-0.5625   -0.5279
-0.5922   -0.5583
-0.6165   -0.5826
-0.6321   -0.5975
-0.6339   -0.5997
-0.6292   -0.5935
-0.6094   -0.5742
-0.5897   -0.5532
-0.5664   -0.5277
-0.5375   -0.4964
-0.5038   -0.4597
-0.4663   -0.4171
-0.4155   -0.3621
-0.3602   -0.3000
-0.2887   -0.2212
-0.2039   -0.1280
-0.0984   -0.0111
 0.0394    0.1356
 0.2069    0.3138
 0.4121    0.5213
 0.6585    0.7557
 0.8707    0.9306
 0.9741    0.9967
 0.9998    0.9897
 0.9786    0.9342
 0.8843    0.8029
 0.6825    0.5718
 0.3869    0.2562
-0.0339   -0.1523
-0.0738   -0.2033
-0.0475   -0.1359
-0.0278   -0.1030
-0.0072   -0.0696
 0.0094   -0.0433
 0.0180   -0.0265
 0.0260   -0.0134
 0.0320   -0.0031
 0.0365    0.0049
 0.0400    0.0111
 0.0434    0.0166
 0.0469    0.0219
 0.0476    0.0253
 0.0556    0.0340
 0.0665    0.0463
 0.0842    0.0643
 0.1062    0.0860
 0.1301    0.1088
 0.1552    0.1300
 0.1809    0.1473
 0.2073    0.1606
 0.2325    0.1713
 0.2561    0.1806
 0.2562    0.2188
 0.2202    0.2227
 0.2093    0.2046
 0.2034    0.1888
 0.2011    0.1777
 0.2061    0.1717
 0.1992    0.1566
 0.1823    0.1335
 0.1569    0.1053
 0.1562    0.0936
-0.0322    0.0484
 0.5606    0.2627


Reynolds =  500000   Mach =    0  NCrit = 9.0
Alpha,Cd,Cl,Cm,XTr1,XTr2,TEHMom,Cpmn
 -1.000       0.007     0.392    -0.119     0.856     0.651    0.0000  -0.6747
 Cpi          Cpv
-----------------
 0.5595    0.2595
-0.0878    0.1875
 0.0944    0.1668
 0.0596    0.1377
 0.0595    0.1156
 0.0455    0.0918
 0.0148    0.0606
-0.0363    0.0164
-0.1069   -0.0510
-0.1505   -0.1803
-0.2090   -0.3323
-0.3147   -0.3394
-0.3619   -0.3517
-0.3895   -0.3705
-0.4259   -0.3971
-0.4599   -0.4303
-0.4914   -0.4636
-0.5193   -0.4933
-0.5430   -0.5180
-0.5608   -0.5359
-0.5693   -0.5441
-0.5637   -0.5391
-0.5508   -0.5251
-0.5226   -0.4976
-0.4933   -0.4676
-0.4591   -0.4321
-0.4180   -0.3894
-0.3703   -0.3399
-0.3163   -0.2825
-0.2473   -0.2111
-0.1702   -0.1299
-0.0744   -0.0297
 0.0383    0.0870
 0.1741    0.2291
 0.3401    0.3970
 0.5283    0.5873
 0.7314    0.7829
 0.9159    0.9482
 0.9989    0.9989
 0.9638    0.9332
 0.8537    0.7946
 0.7083    0.6241
 0.4989    0.3983
 0.1898    0.0810
-0.1425   -0.2552
-0.6078   -0.6747
-0.4962   -0.6095
-0.3628   -0.4418
-0.2734   -0.3373
-0.2035   -0.2572
-0.1513   -0.1963
-0.1168   -0.1532
-0.0886   -0.1204
-0.0666   -0.0947
-0.0493   -0.0744
-0.0353   -0.0581
-0.0230   -0.0441
-0.0121   -0.0318
-0.0050   -0.0222
 0.0087   -0.0083
 0.0248    0.0085
 0.0473    0.0299
 0.0736    0.0532
 0.1015    0.0755
 0.1300    0.0947
 0.1587    0.1100
 0.1878    0.1756
 0.2153    0.2090
 0.2410    0.2286
 0.2425    0.2262
 0.2071    0.1945
 0.1974    0.1800
 0.1927    0.1704
 0.1915    0.1645
 0.1977    0.1624
 0.1917    0.1512
 0.1757    0.1328
 0.1511    0.1111
 0.1514    0.1054
-0.0368    0.0782
 0.5595    0.2595


Reynolds =  500000   Mach =    0  NCrit = 9.0
Alpha,Cd,Cl,Cm,XTr1,XTr2,TEHMom,Cpmn
 -2.000       0.009     0.305    -0.124     0.879     0.044    0.0000  -1.1857
 Cpi          Cpv
-----------------
 0.5586    0.2487
-0.0879    0.1659
 0.0955    0.1481
 0.0619    0.1217
 0.0629    0.1040
 0.0501    0.0844
 0.0207    0.0556
-0.0286    0.0061
-0.0971   -0.1009
-0.1385   -0.3008
-0.1943   -0.3070
-0.2963   -0.3129
-0.3401   -0.3263
-0.3643   -0.3476
-0.3967   -0.3773
-0.4265   -0.4095
-0.4531   -0.4389
-0.4758   -0.4635
-0.4937   -0.4826
-0.5051   -0.4945
-0.5068   -0.4962
-0.4940   -0.4844
-0.4735   -0.4634
-0.4373   -0.4284
-0.3990   -0.3902
-0.3548   -0.3457
-0.3025   -0.2931
-0.2421   -0.2326
-0.1737   -0.1628
-0.0890   -0.0782
 0.0061    0.0186
 0.1211    0.1333
 0.2539    0.2684
 0.4083    0.4212
 0.5848    0.5995
 0.7668    0.7771
 0.9272    0.9347
 1.0000    0.9997
 0.9143    0.9088
 0.7072    0.6964
 0.3950    0.4039
 0.1284    0.1222
-0.1567   -0.1601
-0.5290   -0.5169
-0.8344   -0.8218
-1.3067   -1.1857
-0.9875   -0.9787
-0.7185   -0.7596
-0.5445   -0.6310
-0.4164   -0.5427
-0.3233   -0.3767
-0.2596   -0.2423
-0.2088   -0.2022
-0.1693   -0.1718
-0.1381   -0.1428
-0.1127   -0.1177
-0.0910   -0.0962
-0.0721   -0.0776
-0.0585   -0.0635
-0.0386   -0.0441
-0.0172   -0.0226
 0.0103    0.0042
 0.0411    0.0341
 0.0729    0.0649
 0.1049    0.0957
 0.1368    0.1259
 0.1685    0.1550
 0.1985    0.1811
 0.2262    0.2021
 0.2291    0.2039
 0.1945    0.1821
 0.1859    0.1731
 0.1824    0.1674
 0.1824    0.1648
 0.1897    0.1650
 0.1847    0.1591
 0.1695    0.1491
 0.1457    0.1396
 0.1471    0.1427
-0.0407    0.1407
 0.5586    0.2487


