xflr5 v6.43

NACA 63A-609
Reynolds =  900000   Mach =    0  NCrit = 9.0
Alpha,Cd,Cl,Cm,XTr1,XTr2,TEHMom,Cpmn
 16.000       0.126     1.180    -0.070     0.004     1.000    0.0000  -10.2997
 Cpi          Cpv
-----------------
 0.6130   -0.3360
 0.0113   -0.3367
 0.1583   -0.3380
 0.1084   -0.3399
 0.0899   -0.3424
 0.0571   -0.3456
 0.0056   -0.3495
-0.0697   -0.3543
-0.1704   -0.3600
-0.2480   -0.3668
-0.3475   -0.3749
-0.5090   -0.3844
-0.6127   -0.3956
-0.7003   -0.4088
-0.8068   -0.4242
-0.9203   -0.4420
-1.0418   -0.4626
-1.1717   -0.4865
-1.3110   -0.5140
-1.4597   -0.5456
-1.6148   -0.5818
-1.7700   -0.6223
-1.9399   -0.6624
-2.1122   -0.7411
-2.3207   -0.8778
-2.5680   -1.0492
-2.8636   -1.2449
-3.2268   -1.4644
-3.6887   -1.7153
-4.2559   -2.0049
-5.0181   -2.3574
-6.0084   -2.7926
-7.3705   -3.3590
-9.2712   -4.1457
-11.8842   -5.3451
-15.5764   -7.0995
-20.7027   -8.1555
-26.1343   -8.2795
-29.2030   -8.7208
-31.4633   -9.4890
-38.1529   -10.2997
-35.9313   -9.7519
-29.0608   -7.7391
-21.8226   -5.2481
-13.1686   -2.5290
-7.9539   -0.8244
-2.8378    0.4315
-0.6675    0.8634
 0.2963    0.9883
 0.7363    0.9933
 0.9255    0.9495
 0.9920    0.8878
 0.9970    0.8200
 0.9707    0.7537
 0.9294    0.6892
 0.8814    0.6290
 0.8315    0.5723
 0.7823    0.5196
 0.7343    0.4688
 0.6910    0.4246
 0.6522    0.3856
 0.6200    0.3539
 0.5938    0.3285
 0.5728    0.3078
 0.5563    0.2907
 0.5440    0.2767
 0.5353    0.2654
 0.5291    0.2549
 0.5247    0.2434
 0.5072    0.2126
 0.4660    0.1463
 0.4413    0.0934
 0.4206    0.0438
 0.4034   -0.0039
 0.3923   -0.0477
 0.3727   -0.1070
 0.3452   -0.1842
 0.3106   -0.2800
 0.2957   -0.3461
 0.1194   -0.5020
 0.6130   -0.3360


Reynolds =  900000   Mach =    0  NCrit = 9.0
Alpha,Cd,Cl,Cm,XTr1,XTr2,TEHMom,Cpmn
 15.000       0.083     1.302    -0.048     0.004     1.000    0.0000  -11.9969
 Cpi          Cpv
-----------------
 0.6080   -0.2561
 0.0006   -0.2567
 0.1504   -0.2579
 0.1011   -0.2597
 0.0836   -0.2620
 0.0517   -0.2650
 0.0013   -0.2686
-0.0730   -0.2730
-0.1724   -0.2781
-0.2482   -0.2842
-0.3456   -0.2913
-0.5044   -0.2995
-0.6050   -0.3091
-0.6892   -0.3203
-0.7916   -0.3330
-0.9004   -0.3473
-1.0165   -0.3624
-1.1400   -0.3726
-1.2721   -0.4073
-1.4123   -0.5044
-1.5576   -0.6399
-1.7018   -0.7916
-1.8589   -0.9472
-2.0166   -1.0989
-2.2074   -1.2567
-2.4333   -1.4257
-2.7024   -1.6122
-3.0325   -1.8258
-3.4516   -2.0790
-3.9641   -2.3789
-4.6518   -2.7552
-5.5417   -3.2269
-6.7625   -3.8481
-8.4598   -4.7124
-10.7820   -6.0396
-14.0496   -8.0149
-18.5621   -9.5892
-23.2874   -9.7331
-25.8652   -10.2188
-27.7316   -11.0707
-33.5303   -11.9969
-31.4562   -11.4048
-25.2831   -9.1192
-18.8037   -6.2826
-11.1444   -3.1659
-6.5369   -1.2066
-2.1467    0.2792
-0.3172    0.8072
 0.4766    0.9742
 0.8247    0.9983
 0.9627    0.9632
 0.9995    0.9051
 0.9869    0.8388
 0.9503    0.7726
 0.9028    0.7082
 0.8514    0.6479
 0.7998    0.5913
 0.7500    0.5390
 0.7021    0.4888
 0.6595    0.4454
 0.6219    0.4073
 0.5911    0.3767
 0.5666    0.3524
 0.5474    0.3329
 0.5327    0.3171
 0.5220    0.3045
 0.5150    0.2944
 0.5103    0.2853
 0.5073    0.2753
 0.4906    0.2470
 0.4493    0.1850
 0.4252    0.1358
 0.4052    0.0899
 0.3887    0.0459
 0.3785    0.0055
 0.3594   -0.0493
 0.3324   -0.1209
 0.2981   -0.2094
 0.2840   -0.2690
 0.1060   -0.4039
 0.6080   -0.2561


Reynolds =  900000   Mach =    0  NCrit = 9.0
Alpha,Cd,Cl,Cm,XTr1,XTr2,TEHMom,Cpmn
 14.000       0.061     1.365    -0.044     0.004     1.000    0.0000  -12.1921
 Cpi          Cpv
-----------------
 0.6032   -0.1924
-0.0095   -0.1928
 0.1430   -0.1940
 0.0944   -0.1955
 0.0779   -0.1977
 0.0470   -0.2003
-0.0025   -0.2036
-0.0756   -0.2074
-0.1735   -0.2119
-0.2476   -0.2172
-0.3429   -0.2232
-0.4989   -0.2299
-0.5964   -0.2375
-0.6771   -0.2453
-0.7754   -0.2486
-0.8795   -0.2645
-0.9901   -0.3298
-1.1074   -0.4326
-1.2321   -0.5616
-1.3639   -0.7029
-1.4996   -0.8456
-1.6328   -0.9826
-1.7772   -1.1174
-1.9206   -1.2478
-2.0941   -1.3884
-2.2991   -1.5434
-2.5425   -1.7183
-2.8404   -1.9224
-3.2181   -2.1683
-3.6777   -2.4616
-4.2936   -2.8339
-5.0873   -3.3029
-6.1728   -3.9249
-7.6763   -4.7984
-9.7223   -6.1630
-12.5878   -8.2246
-16.5214   -9.6089
-20.5842   -9.7758
-22.7074   -10.3322
-24.2113   -11.2457
-29.1784   -12.1921
-27.2517   -11.5301
-21.7440   -9.1803
-15.9877   -6.3003
-9.2692   -3.1563
-5.2378   -1.1879
-1.5224    0.2922
-0.0076    0.8141
 0.6305    0.9766
 0.8952    0.9977
 0.9871    0.9606
 0.9978    0.9014
 0.9699    0.8345
 0.9245    0.7684
 0.8722    0.7044
 0.8182    0.6447
 0.7656    0.5891
 0.7158    0.5379
 0.6682    0.4890
 0.6268    0.4472
 0.5905    0.4108
 0.5615    0.3820
 0.5389    0.3595
 0.5215    0.3418
 0.5086    0.3279
 0.4997    0.3170
 0.4945    0.3089
 0.4914    0.3015
 0.4898    0.2933
 0.4739    0.2674
 0.4327    0.2091
 0.4092    0.1632
 0.3900    0.1206
 0.3742    0.0800
 0.3648    0.0428
 0.3464   -0.0080
 0.3199   -0.0746
 0.2859   -0.1569
 0.2726   -0.2114
 0.0932   -0.3323
 0.6032   -0.1924


Reynolds =  900000   Mach =    0  NCrit = 9.0
Alpha,Cd,Cl,Cm,XTr1,XTr2,TEHMom,Cpmn
 13.000       0.047     1.397    -0.049     0.004     1.000    0.0000  -11.7962
 Cpi          Cpv
-----------------
 0.5986   -0.1381
-0.0190   -0.1383
 0.1361   -0.1393
 0.0882   -0.1408
 0.0727   -0.1428
 0.0428   -0.1452
-0.0056   -0.1481
-0.0775   -0.1516
-0.1740   -0.1554
-0.2463   -0.1598
-0.3394   -0.1642
-0.4925   -0.1667
-0.5868   -0.1624
-0.6640   -0.1896
-0.7582   -0.2479
-0.8575   -0.3358
-0.9627   -0.4465
-1.0736   -0.5702
-1.1911   -0.6991
-1.3145   -0.8283
-1.4406   -0.9546
-1.5632   -1.0744
-1.6951   -1.1938
-1.8245   -1.3094
-1.9811   -1.4372
-2.1656   -1.5801
-2.3841   -1.7430
-2.6508   -1.9347
-2.9883   -2.1675
-3.3970   -2.4453
-3.9441   -2.8006
-4.6457   -3.2485
-5.6023   -3.8452
-6.9216   -4.6920
-8.7063   -6.0528
-11.1928   -8.1766
-14.5830   -9.0798
-18.0282   -9.2829
-19.7335   -9.9303
-20.9067   -10.8794
-25.1023   -11.7962
-23.3227   -11.0552
-18.4480   -8.7229
-13.3780   -5.9172
-7.5456   -2.8909
-4.0580   -1.0104
-0.9657    0.3707
 0.2612    0.8458
 0.7578    0.9853
 0.9478    0.9944
 0.9989    0.9511
 0.9868    0.8890
 0.9460    0.8208
 0.8935    0.7546
 0.8374    0.6910
 0.7818    0.6324
 0.7288    0.5780
 0.6794    0.5283
 0.6328    0.4812
 0.5927    0.4412
 0.5581    0.4069
 0.5310    0.3801
 0.5105    0.3598
 0.4952    0.3442
 0.4843    0.3323
 0.4773    0.3236
 0.4739    0.3173
 0.4724    0.3118
 0.4724    0.3054
 0.4574    0.2819
 0.4162    0.2271
 0.3934    0.1842
 0.3749    0.1447
 0.3599    0.1072
 0.3514    0.0731
 0.3337    0.0258
 0.3077   -0.0363
 0.2741   -0.1131
 0.2616   -0.1630
 0.0808   -0.2717
 0.5986   -0.1381


Reynolds =  900000   Mach =    0  NCrit = 9.0
Alpha,Cd,Cl,Cm,XTr1,XTr2,TEHMom,Cpmn
 12.000       0.040     1.384    -0.055     0.005     1.000    0.0000  -10.6526
 Cpi          Cpv
-----------------
 0.5942   -0.0960
-0.0280   -0.0961
 0.1297   -0.0970
 0.0825   -0.0983
 0.0680   -0.1001
 0.0392   -0.1023
-0.0081   -0.1048
-0.0788   -0.1075
-0.1738   -0.1101
-0.2442   -0.1118
-0.3351   -0.1081
-0.4852   -0.1201
-0.5763   -0.1607
-0.6500   -0.2248
-0.7400   -0.3116
-0.8346   -0.4150
-0.9343   -0.5277
-1.0389   -0.6442
-1.1492   -0.7616
-1.2643   -0.8782
-1.3810   -0.9918
-1.4929   -1.0992
-1.6126   -1.2068
-1.7282   -1.3101
-1.8683   -1.4256
-2.0330   -1.5556
-2.2272   -1.7041
-2.4637   -1.8793
-2.7626   -2.0928
-3.1224   -2.3469
-3.6035   -2.6730
-4.2174   -3.0832
-5.0515   -3.6308
-6.1966   -4.4150
-7.7352   -5.7314
-9.8664   -7.8064
-12.7493   -8.0244
-15.6223   -8.2566
-16.9470   -8.9476
-17.8217   -9.8345
-21.3072   -10.6526
-19.6741   -9.8733
-15.3989   -7.6823
-10.9778   -5.0975
-5.9754   -2.3553
-2.9990   -0.6708
-0.4773    0.5125
 0.4888    0.8986
 0.8585    0.9963
 0.9822    0.9846
 0.9979    0.9311
 0.9664    0.8643
 0.9151    0.7942
 0.8571    0.7280
 0.7985    0.6652
 0.7422    0.6080
 0.6895    0.5554
 0.6412    0.5076
 0.5957    0.4625
 0.5574    0.4248
 0.5248    0.3928
 0.4999    0.3684
 0.4816    0.3505
 0.4685    0.3373
 0.4597    0.3277
 0.4547    0.3212
 0.4532    0.3170
 0.4534    0.3135
 0.4549    0.3089
 0.4409    0.2876
 0.3998    0.2358
 0.3777    0.1956
 0.3600    0.1589
 0.3458    0.1241
 0.3382    0.0927
 0.3212    0.0486
 0.2958   -0.0096
 0.2627   -0.0817
 0.2510   -0.1280
 0.0689   -0.2287
 0.5942   -0.0960


Reynolds =  900000   Mach =    0  NCrit = 9.0
Alpha,Cd,Cl,Cm,XTr1,XTr2,TEHMom,Cpmn
 11.000       0.030     1.382    -0.066     0.006     1.000    0.0000  -9.9418
 Cpi          Cpv
-----------------
 0.5901   -0.0526
-0.0363   -0.0524
 0.1237   -0.0535
 0.0773   -0.0549
 0.0640   -0.0568
 0.0361   -0.0591
-0.0101   -0.0617
-0.0794   -0.0637
-0.1728   -0.0634
-0.2414   -0.0625
-0.3300   -0.0843
-0.4771   -0.1327
-0.5649   -0.2049
-0.6350   -0.2925
-0.7209   -0.3926
-0.8107   -0.4980
-0.9049   -0.6050
-1.0033   -0.7118
-1.1064   -0.8183
-1.2132   -0.9240
-1.3206   -1.0269
-1.4221   -1.1230
-1.5298   -1.2195
-1.6320   -1.3106
-1.7561   -1.4141
-1.9014   -1.5310
-2.0721   -1.6646
-2.2795   -1.8226
-2.5413   -2.0159
-2.8542   -2.2439
-3.2725   -2.5381
-3.8030   -2.9059
-4.5213   -3.4032
-5.5023   -4.1625
-6.8103   -5.5329
-8.6100   -7.2831
-11.0225   -7.3758
-13.3696   -7.7003
-14.3514   -8.4452
-14.9602   -9.2125
-17.7975   -9.9418
-16.3103   -9.0947
-12.6006   -6.9640
-8.7901   -4.5160
-4.5607   -1.9640
-2.0622   -0.4220
-0.0578    0.6152
 0.6748    0.9339
 0.9323    0.9999
 0.9985    0.9726
 0.9842    0.9114
 0.9368    0.8413
 0.8773    0.7701
 0.8155    0.7042
 0.7556    0.6425
 0.6994    0.5868
 0.6478    0.5359
 0.6009    0.4901
 0.5572    0.4471
 0.5210    0.4116
 0.4906    0.3819
 0.4681    0.3599
 0.4522    0.3444
 0.4415    0.3335
 0.4349    0.3262
 0.4320    0.3218
 0.4324    0.3197
 0.4345    0.3182
 0.4376    0.3155
 0.4245    0.2965
 0.3836    0.2477
 0.3622    0.2104
 0.3453    0.1764
 0.3320    0.1446
 0.3254    0.1158
 0.3091    0.0749
 0.2842    0.0205
 0.2516   -0.0468
 0.2407   -0.0892
 0.0574   -0.1785
 0.5901   -0.0526


Reynolds =  900000   Mach =    0  NCrit = 9.0
Alpha,Cd,Cl,Cm,XTr1,XTr2,TEHMom,Cpmn
 10.000       0.026     1.330    -0.073     0.007     1.000    0.0000  -8.3229
 Cpi          Cpv
-----------------
 0.5862   -0.0221
-0.0441   -0.0214
 0.1183   -0.0223
 0.0727   -0.0234
 0.0604   -0.0249
 0.0337   -0.0265
-0.0114   -0.0273
-0.0794   -0.0252
-0.1712   -0.0317
-0.2378   -0.0532
-0.3241   -0.0927
-0.4680   -0.1608
-0.5525   -0.2454
-0.6191   -0.3356
-0.7008   -0.4323
-0.7858   -0.5305
-0.8746   -0.6288
-0.9668   -0.7266
-1.0628   -0.8241
-1.1615   -0.9208
-1.2596   -1.0143
-1.3509   -1.1005
-1.4468   -1.1865
-1.5360   -1.2661
-1.6444   -1.3569
-1.7710   -1.4594
-1.9191   -1.5762
-2.0985   -1.7141
-2.3246   -1.8826
-2.5928   -2.0797
-2.9512   -2.3341
-3.4028   -2.6522
-4.0121   -3.1013
-4.8394   -3.8887
-5.9326   -5.2633
-7.4254   -6.1216
-9.4047   -6.2190
-11.2727   -6.5547
-11.9499   -7.1634
-12.3257   -7.7422
-14.5777   -8.3229
-13.2354   -7.5082
-10.0563   -5.6117
-6.8175   -3.4888
-3.3032   -1.3139
-1.2486   -0.0352
 0.2924    0.7630
 0.8191    0.9759
 0.9793    0.9949
 0.9967    0.9453
 0.9578    0.8751
 0.8980    0.8001
 0.8327    0.7294
 0.7688    0.6635
 0.7088    0.6044
 0.6536    0.5505
 0.6037    0.5024
 0.5588    0.4591
 0.5172    0.4187
 0.4834    0.3859
 0.4555    0.3589
 0.4356    0.3397
 0.4223    0.3269
 0.4141    0.3187
 0.4099    0.3139
 0.4092    0.3119
 0.4116    0.3120
 0.4155    0.3125
 0.4203    0.3116
 0.4082    0.2947
 0.3676    0.2486
 0.3470    0.2135
 0.3309    0.1820
 0.3184    0.1525
 0.3128    0.1263
 0.2972    0.0882
 0.2729    0.0371
 0.2408   -0.0262
 0.2308   -0.0657
 0.0465   -0.1499
 0.5862   -0.0221


Reynolds =  900000   Mach =    0  NCrit = 9.0
Alpha,Cd,Cl,Cm,XTr1,XTr2,TEHMom,Cpmn
  9.000       0.022     1.269    -0.079     0.009     1.000    0.0000  -6.8125
 Cpi          Cpv
-----------------
 0.5825    0.0059
-0.0513    0.0074
 0.1135    0.0069
 0.0687    0.0063
 0.0575    0.0056
 0.0318    0.0056
-0.0120    0.0054
-0.0787   -0.0043
-0.1688   -0.0242
-0.2335   -0.0572
-0.3173   -0.1091
-0.4581   -0.1906
-0.5393   -0.2805
-0.6023   -0.3685
-0.6798   -0.4596
-0.7601   -0.5506
-0.8434   -0.6410
-0.9294   -0.7308
-1.0183   -0.8202
-1.1090   -0.9086
-1.1980   -0.9932
-1.2793   -1.0699
-1.3638   -1.1457
-1.4402   -1.2141
-1.5334   -1.2925
-1.6419   -1.3807
-1.7682   -1.4807
-1.9207   -1.5984
-2.1127   -1.7423
-2.3385   -1.9084
-2.6402   -2.1229
-3.0176   -2.3877
-3.5246   -2.7655
-4.2088   -3.4886
-5.1033   -4.7916
-6.3139   -5.0810
-7.8979   -5.2090
-9.3343   -5.5964
-9.7453   -5.9964
-9.9212   -6.3769
-11.6515   -6.8125
-10.4532   -6.0323
-7.7693   -4.3635
-5.0623   -2.5409
-2.2044   -0.7306
-0.5592    0.3021
 0.5727    0.8778
 0.9214    0.9977
 0.9992    0.9754
 0.9768    0.9073
 0.9187    0.8301
 0.8500    0.7527
 0.7813    0.6827
 0.7169    0.6186
 0.6580    0.5620
 0.6047    0.5110
 0.5572    0.4658
 0.5149    0.4255
 0.4758    0.3879
 0.4447    0.3580
 0.4195    0.3340
 0.4025    0.3177
 0.3921    0.3078
 0.3864    0.3023
 0.3847    0.3001
 0.3863    0.3005
 0.3908    0.3028
 0.3966    0.3053
 0.4031    0.3062
 0.3921    0.2914
 0.3517    0.2478
 0.3319    0.2150
 0.3167    0.1857
 0.3052    0.1587
 0.3005    0.1347
 0.2857    0.0994
 0.2620    0.0516
 0.2305   -0.0079
 0.2214   -0.0446
 0.0361   -0.1236
 0.5825    0.0059


Reynolds =  900000   Mach =    0  NCrit = 9.0
Alpha,Cd,Cl,Cm,XTr1,XTr2,TEHMom,Cpmn
  8.000       0.017     1.228    -0.090     0.010     1.000    0.0000  -5.7242
 Cpi          Cpv
-----------------
 0.5791    0.0564
-0.0578    0.0614
 0.1091    0.0615
 0.0652    0.0591
 0.0551    0.0536
 0.0305    0.0449
-0.0121    0.0312
-0.0774    0.0088
-0.1657   -0.0271
-0.2284   -0.0761
-0.3099   -0.1435
-0.4474   -0.2414
-0.5252   -0.3337
-0.5846   -0.4151
-0.6579   -0.4985
-0.7334   -0.5811
-0.8114   -0.6632
-0.8912   -0.7449
-0.9731   -0.8264
-1.0559   -0.9066
-1.1360   -0.9829
-1.2074   -1.0505
-1.2807   -1.1169
-1.3448   -1.1749
-1.4233   -1.2421
-1.5143   -1.3178
-1.6197   -1.4033
-1.7464   -1.5036
-1.9060   -1.6262
-2.0915   -1.7650
-2.3399   -1.9439
-2.6476   -2.1578
-3.0595   -2.4490
-3.6112   -3.0357
-4.3233   -4.2060
-5.2768   -4.3118
-6.5039   -4.5515
-7.5566   -5.0620
-7.7404   -5.2035
-7.7499   -5.4046
-9.0226   -5.7242
-7.9670   -4.9577
-5.7424   -3.4590
-3.5269   -1.8451
-1.2657   -0.3158
 0.0051    0.5359
 0.7829    0.9444
 0.9817    0.9982
 0.9922    0.9468
 0.9388    0.8679
 0.8669    0.7856
 0.7928    0.7093
 0.7231    0.6396
 0.6600    0.5789
 0.6034    0.5247
 0.5529    0.4769
 0.5084    0.4347
 0.4692    0.3974
 0.4330    0.3628
 0.4050    0.3359
 0.3828    0.3148
 0.3688    0.3015
 0.3614    0.2944
 0.3585    0.2917
 0.3594    0.2921
 0.3633    0.2950
 0.3700    0.2996
 0.3778    0.3043
 0.3860    0.3071
 0.3761    0.2949
 0.3360    0.2548
 0.3171    0.2250
 0.3028    0.1990
 0.2922    0.1754
 0.2886    0.1550
 0.2745    0.1241
 0.2515    0.0817
 0.2206    0.0292
 0.2123   -0.0025
 0.0262   -0.0725
 0.5791    0.0564


Reynolds =  900000   Mach =    0  NCrit = 9.0
Alpha,Cd,Cl,Cm,XTr1,XTr2,TEHMom,Cpmn
  7.000       0.015     1.158    -0.097     0.013     1.000    0.0000  -4.3506
 Cpi          Cpv
-----------------
 0.5759    0.0967
-0.0637    0.0933
 0.1053    0.0889
 0.0623    0.0818
 0.0533    0.0722
 0.0298    0.0584
-0.0116    0.0382
-0.0754    0.0076
-0.1619   -0.0380
-0.2225   -0.0944
-0.3016   -0.1672
-0.4358   -0.2700
-0.5102   -0.3585
-0.5660   -0.4328
-0.6352   -0.5094
-0.7060   -0.5853
-0.7785   -0.6607
-0.8523   -0.7355
-0.9273   -0.8098
-1.0022   -0.8824
-1.0736   -0.9504
-1.1354   -1.0091
-1.1978   -1.0658
-1.2499   -1.1130
-1.3143   -1.1684
-1.3885   -1.2306
-1.4737   -1.3002
-1.5759   -1.3816
-1.7047   -1.4807
-1.8522   -1.5898
-2.0505   -1.7295
-2.2934   -1.8944
-2.6172   -2.1347
-3.0474   -2.8221
-3.5936   -3.2814
-4.3155   -3.4468
-5.2244   -3.7782
-5.9419   -4.1861
-5.9376   -4.1185
-5.8142   -4.1577
-6.6942   -4.3506
-5.7799   -3.6499
-3.9779   -2.3816
-2.2129   -1.0590
-0.4881    0.1372
 0.4436    0.7612
 0.9227    0.9919
 0.9999    0.9762
 0.9582    0.8969
 0.8827    0.8089
 0.8027    0.7244
 0.7267    0.6500
 0.6583    0.5834
 0.5980    0.5267
 0.5449    0.4764
 0.4982    0.4326
 0.4574    0.3942
 0.4218    0.3606
 0.3888    0.3293
 0.3643    0.3058
 0.3454    0.2880
 0.3347    0.2780
 0.3303    0.2740
 0.3304    0.2742
 0.3339    0.2773
 0.3403    0.2827
 0.3493    0.2897
 0.3590    0.2964
 0.3691    0.3010
 0.3603    0.2911
 0.3206    0.2540
 0.3025    0.2267
 0.2892    0.2034
 0.2796    0.1827
 0.2769    0.1653
 0.2637    0.1382
 0.2414    0.1008
 0.2111    0.0550
 0.2037    0.0291
 0.0169   -0.0289
 0.5759    0.0967


Reynolds =  900000   Mach =    0  NCrit = 9.0
Alpha,Cd,Cl,Cm,XTr1,XTr2,TEHMom,Cpmn
  6.000       0.013     1.078    -0.103     0.029     1.000    0.0000  -3.3100
 Cpi          Cpv
-----------------
 0.5729    0.1252
-0.0690    0.1156
 0.1020    0.1086
 0.0600    0.0980
 0.0520    0.0847
 0.0297    0.0667
-0.0104    0.0412
-0.0727    0.0040
-0.1574   -0.0489
-0.2160   -0.1094
-0.2926   -0.1843
-0.4233   -0.2894
-0.4944   -0.3732
-0.5466   -0.4406
-0.6116   -0.5112
-0.6777   -0.5809
-0.7449   -0.6501
-0.8126   -0.7184
-0.8808   -0.7858
-0.9481   -0.8510
-1.0109   -0.9108
-1.0633   -0.9605
-1.1151   -1.0074
-1.1557   -1.0438
-1.2063   -1.0870
-1.2644   -1.1352
-1.3304   -1.1884
-1.4094   -1.2499
-1.5091   -1.3239
-1.6209   -1.4030
-1.7724   -1.5076
-1.9554   -1.6761
-2.1984   -1.9767
-2.5180   -2.1781
-2.9151   -2.4289
-3.4311   -2.7525
-4.0611   -3.1257
-4.4922   -3.3100
-4.3390   -3.0786
-4.1166   -2.9829
-4.6692   -3.0602
-3.8945   -2.4490
-2.4780   -1.3952
-1.1220   -0.3730
 0.1273    0.5169
 0.7558    0.9171
 0.9919    0.9960
 0.9760    0.9247
 0.8972    0.8279
 0.8086    0.7334
 0.7259    0.6528
 0.6515    0.5805
 0.5870    0.5202
 0.5312    0.4678
 0.4828    0.4228
 0.4407    0.3836
 0.4042    0.3496
 0.3727    0.3200
 0.3434    0.2925
 0.3226    0.2727
 0.3072    0.2584
 0.3000    0.2518
 0.2989    0.2511
 0.3021    0.2542
 0.3084    0.2602
 0.3173    0.2682
 0.3286    0.2773
 0.3404    0.2860
 0.3523    0.2923
 0.3447    0.2847
 0.3053    0.2504
 0.2882    0.2253
 0.2759    0.2042
 0.2673    0.1860
 0.2657    0.1712
 0.2533    0.1473
 0.2317    0.1140
 0.2020    0.0738
 0.1955    0.0529
 0.0082    0.0055
 0.5729    0.1252


Reynolds =  900000   Mach =    0  NCrit = 9.0
Alpha,Cd,Cl,Cm,XTr1,XTr2,TEHMom,Cpmn
  5.000       0.010     1.010    -0.110     0.214     1.000    0.0000  -2.4633
 Cpi          Cpv
-----------------
 0.5702    0.1618
-0.0737    0.1411
 0.0993    0.1300
 0.0582    0.1134
 0.0514    0.0947
 0.0302    0.0710
-0.0086    0.0387
-0.0694   -0.0068
-0.1522   -0.0686
-0.2087   -0.1320
-0.2828   -0.2077
-0.4101   -0.3158
-0.4778   -0.3932
-0.5264   -0.4526
-0.5872   -0.5167
-0.6486   -0.5801
-0.7105   -0.6428
-0.7723   -0.7044
-0.8338   -0.7646
-0.8935   -0.8219
-0.9479   -0.8723
-0.9912   -0.9099
-1.0327   -0.9423
-1.0621   -0.9670
-1.0996   -1.0311
-1.1423   -1.0594
-1.1901   -1.0973
-1.2470   -1.1439
-1.3193   -1.2013
-1.3979   -1.2662
-1.5061   -1.3516
-1.6339   -1.4549
-1.8035   -1.5884
-2.0237   -1.7538
-2.2886   -1.9508
-2.6246   -2.1874
-3.0152   -2.4243
-3.2091   -2.4633
-2.9467   -2.1507
-2.6592   -1.9707
-2.9499   -1.9624
-2.3132   -1.4419
-1.2446   -0.6070
-0.2556    0.1626
 0.5799    0.7750
 0.9413    0.9914
 0.9904    0.9567
 0.9099    0.8499
 0.8094    0.7454
 0.7166    0.6516
 0.6367    0.5770
 0.5675    0.5105
 0.5091    0.4565
 0.4595    0.4101
 0.4170    0.3707
 0.3803    0.3365
 0.3490    0.3072
 0.3221    0.2820
 0.2968    0.2584
 0.2800    0.2423
 0.2684    0.2317
 0.2649    0.2286
 0.2673    0.2312
 0.2736    0.2374
 0.2828    0.2463
 0.2944    0.2568
 0.3080    0.2682
 0.3220    0.2787
 0.3357    0.2866
 0.3293    0.2817
 0.2904    0.2510
 0.2742    0.2285
 0.2630    0.2102
 0.2553    0.1950
 0.2548    0.1833
 0.2433    0.1636
 0.2224    0.1359
 0.1933    0.1033
 0.1878    0.0895
-0.0000    0.0578
 0.5702    0.1618


Reynolds =  900000   Mach =    0  NCrit = 9.0
Alpha,Cd,Cl,Cm,XTr1,XTr2,TEHMom,Cpmn
  4.000       0.006     0.950    -0.119     0.529     1.000    0.0000  -1.7860
 Cpi          Cpv
-----------------
 0.5678    0.2042
-0.0777    0.1578
 0.0971    0.1402
 0.0570    0.1140
 0.0513    0.0895
 0.0313    0.0609
-0.0062    0.0234
-0.0655   -0.0285
-0.1463   -0.0972
-0.2007   -0.1586
-0.2722   -0.2317
-0.3961   -0.3419
-0.4603   -0.4107
-0.5054   -0.4598
-0.5621   -0.5148
-0.6188   -0.5675
-0.6755   -0.6218
-0.7314   -0.7046
-0.7863   -0.7694
-0.8386   -0.8089
-0.8848   -0.8489
-0.9192   -0.8814
-0.9508   -0.9096
-0.9694   -0.9282
-0.9944   -0.9506
-1.0223   -0.9751
-1.0528   -1.0017
-1.0889   -1.0330
-1.1356   -1.0715
-1.1833   -1.1126
-1.2517   -1.1684
-1.3295   -1.2333
-1.4331   -1.3181
-1.5652   -1.4214
-1.7149   -1.5371
-1.8971   -1.6718
-2.0881   -1.7860
-2.0942   -1.7172
-1.7624   -1.3613
-1.4436   -1.1291
-1.5384   -1.0626
-1.0378   -0.6253
-0.2792    0.0016
 0.3853    0.5588
 0.8690    0.9300
 0.9999    0.9911
 0.9183    0.8780
 0.8018    0.7561
 0.6948    0.6496
 0.6068    0.5651
 0.5353    0.4967
 0.4746    0.4395
 0.4248    0.3923
 0.3831    0.3531
 0.3477    0.3196
 0.3173    0.2909
 0.2916    0.2666
 0.2698    0.2458
 0.2490    0.2264
 0.2366    0.2143
 0.2290    0.2074
 0.2294    0.2079
 0.2354    0.2138
 0.2450    0.2233
 0.2572    0.2350
 0.2715    0.2481
 0.2875    0.2616
 0.3036    0.2738
 0.3193    0.2833
 0.3141    0.2814
 0.2757    0.2554
 0.2606    0.2360
 0.2503    0.2210
 0.2437    0.2094
 0.2442    0.2016
 0.2336    0.1871
 0.2135    0.1667
 0.1851    0.1445
 0.1805    0.1404
-0.0077    0.1289
 0.5678    0.2042


Reynolds =  900000   Mach =    0  NCrit = 9.0
Alpha,Cd,Cl,Cm,XTr1,XTr2,TEHMom,Cpmn
  3.000       0.005     0.861    -0.124     0.647     1.000    0.0000  -1.1206
 Cpi          Cpv
-----------------
 0.5656    0.2204
-0.0810    0.1514
 0.0955    0.1318
 0.0564    0.1017
 0.0518    0.0775
 0.0330    0.0502
-0.0032    0.0135
-0.0609   -0.0381
-0.1398   -0.1066
-0.1921   -0.1638
-0.2610   -0.2327
-0.3813   -0.3396
-0.4421   -0.4000
-0.4837   -0.4394
-0.5362   -0.4902
-0.5883   -0.6060
-0.6398   -0.6400
-0.6899   -0.6772
-0.7383   -0.7193
-0.7833   -0.7610
-0.8216   -0.7971
-0.8474   -0.8229
-0.8693   -0.8429
-0.8777   -0.8520
-0.8906   -0.8636
-0.9046   -0.8755
-0.9187   -0.8874
-0.9354   -0.9013
-0.9582   -0.9190
-0.9776   -0.9348
-1.0097   -0.9591
-1.0424   -0.9843
-1.0875   -1.0186
-1.1429   -1.0574
-1.1946   -1.0901
-1.2495   -1.1206
-1.2809   -1.1112
-1.1490   -0.9465
-0.7874   -0.5744
-0.4715   -0.3159
-0.4366   -0.2039
-0.0700    0.1214
 0.4171    0.5387
 0.8000    0.8618
 0.9943    0.9998
 0.9315    0.9017
 0.7756    0.7354
 0.6518    0.6154
 0.5536    0.5187
 0.4794    0.4495
 0.4217    0.3941
 0.3731    0.3488
 0.3343    0.3118
 0.3021    0.2815
 0.2749    0.2558
 0.2517    0.2339
 0.2323    0.2155
 0.2161    0.2001
 0.2002    0.1853
 0.1924    0.1777
 0.1891    0.1750
 0.1935    0.1794
 0.2033    0.1890
 0.2163    0.2017
 0.2316    0.2164
 0.2486    0.2321
 0.2672    0.2474
 0.2855    0.2608
 0.3031    0.2712
 0.2992    0.2726
 0.2613    0.2510
 0.2472    0.2338
 0.2380    0.2209
 0.2325    0.2116
 0.2341    0.2062
 0.2244    0.1950
 0.2050    0.1792
 0.1773    0.1634
 0.1737    0.1649
-0.0147    0.1634
 0.5656    0.2204


Reynolds =  900000   Mach =    0  NCrit = 9.0
Alpha,Cd,Cl,Cm,XTr1,XTr2,TEHMom,Cpmn
  2.000       0.005     0.766    -0.127     0.722     1.000    0.0000  -0.7741
 Cpi          Cpv
-----------------
 0.5637    0.2294
-0.0837    0.1373
 0.0944    0.1186
 0.0563    0.0874
 0.0528    0.0658
 0.0352    0.0413
 0.0004    0.0069
-0.0557   -0.0430
-0.1326   -0.1095
-0.1827   -0.1622
-0.2490   -0.2262
-0.3657   -0.3264
-0.4231   -0.3830
-0.4612   -0.4658
-0.5096   -0.5382
-0.5571   -0.5653
-0.6035   -0.5992
-0.6479   -0.6384
-0.6899   -0.6783
-0.7279   -0.7149
-0.7583   -0.7443
-0.7759   -0.7622
-0.7885   -0.7736
-0.7870   -0.7732
-0.7885   -0.7741
-0.7892   -0.7738
-0.7880   -0.7714
-0.7866   -0.7687
-0.7874   -0.7665
-0.7809   -0.7585
-0.7802   -0.7535
-0.7730   -0.7426
-0.7671   -0.7313
-0.7573   -0.7132
-0.7284   -0.6746
-0.6825   -0.6190
-0.5946   -0.5107
-0.3745   -0.2819
-0.0230    0.0721
 0.2560    0.3181
 0.3543    0.4442
 0.5892    0.6540
 0.8434    0.8791
 0.9878    0.9951
 0.9556    0.9410
 0.7363    0.7075
 0.5625    0.5330
 0.4601    0.4349
 0.3860    0.3638
 0.3345    0.3151
 0.2961    0.2789
 0.2631    0.2481
 0.2375    0.2238
 0.2165    0.2040
 0.1987    0.1872
 0.1836    0.1729
 0.1712    0.1611
 0.1610    0.1515
 0.1503    0.1419
 0.1474    0.1390
 0.1486    0.1408
 0.1573    0.1493
 0.1710    0.1628
 0.1876    0.1791
 0.2061    0.1968
 0.2259    0.2148
 0.2470    0.2312
 0.2676    0.2446
 0.2872    0.2552
 0.2846    0.2605
 0.2473    0.2456
 0.2342    0.2305
 0.2261    0.2194
 0.2216    0.2120
 0.2244    0.2085
 0.2155    0.2001
 0.1970    0.1883
 0.1701    0.1779
 0.1674    0.1834
-0.0211    0.1880
 0.5637    0.2294


Reynolds =  900000   Mach =    0  NCrit = 9.0
Alpha,Cd,Cl,Cm,XTr1,XTr2,TEHMom,Cpmn
  1.000       0.005     0.609    -0.116     0.765     0.791    0.0000  -0.6743
 Cpi          Cpv
-----------------
 0.5620    0.2822
-0.0857    0.1988
 0.0938    0.1733
 0.0569    0.1367
 0.0545    0.1095
 0.0381    0.0809
 0.0046    0.0437
-0.0499   -0.0075
-0.1247   -0.0738
-0.1726   -0.1251
-0.2364   -0.1873
-0.3494   -0.2873
-0.4034   -0.3895
-0.4379   -0.4512
-0.4823   -0.4742
-0.5253   -0.5037
-0.5666   -0.5393
-0.6054   -0.5763
-0.6412   -0.6112
-0.6722   -0.6412
-0.6951   -0.6629
-0.7047   -0.6723
-0.7084   -0.6743
-0.6975   -0.6635
-0.6882   -0.6525
-0.6765   -0.6384
-0.6609   -0.6201
-0.6427   -0.5985
-0.6234   -0.5738
-0.5934   -0.5392
-0.5637   -0.5016
-0.5217   -0.4514
-0.4725   -0.3914
-0.4091   -0.3145
-0.3169   -0.2060
-0.1968   -0.0713
-0.0300    0.1157
 0.2282    0.3740
 0.5300    0.6549
 0.7381    0.8301
 0.8333    0.9151
 0.9388    0.9820
 0.9992    0.9941
 0.9487    0.8969
 0.7531    0.6679
 0.4143    0.3105
 0.2792    0.1806
 0.2269    0.1537
 0.1921    0.1280
 0.1722    0.1194
 0.1586    0.1130
 0.1447    0.1053
 0.1347    0.0995
 0.1264    0.0948
 0.1192    0.0904
 0.1130    0.0864
 0.1081    0.0833
 0.1046    0.0812
 0.0994    0.0780
 0.1018    0.0809
 0.1078    0.0878
 0.1209    0.1011
 0.1386    0.1188
 0.1588    0.1386
 0.1806    0.1589
 0.2034    0.1778
 0.2271    0.1933
 0.2499    0.2055
 0.2715    0.2155
 0.2702    0.2483
 0.2335    0.2295
 0.2215    0.2095
 0.2146    0.1946
 0.2112    0.1841
 0.2150    0.1790
 0.2071    0.1639
 0.1894    0.1399
 0.1632    0.1096
 0.1616    0.0967
-0.0269    0.0367
 0.5620    0.2822


Reynolds =  900000   Mach =    0  NCrit = 9.0
Alpha,Cd,Cl,Cm,XTr1,XTr2,TEHMom,Cpmn
  0.000       0.005     0.506    -0.118     0.803     0.718    0.0000  -0.6094
 Cpi          Cpv
-----------------
 0.5606    0.2843
-0.0871    0.1885
 0.0938    0.1639
 0.0580    0.1276
 0.0567    0.1030
 0.0415    0.0770
 0.0094    0.0424
-0.0434   -0.0060
-0.1161   -0.0685
-0.1619   -0.1169
-0.2230   -0.1871
-0.3324   -0.3314
-0.3830   -0.3955
-0.4140   -0.4152
-0.4544   -0.4405
-0.4929   -0.4723
-0.5293   -0.5068
-0.5625   -0.5398
-0.5922   -0.5692
-0.6165   -0.5928
-0.6321   -0.6075
-0.6339   -0.6094
-0.6292   -0.6033
-0.6094   -0.5838
-0.5897   -0.5631
-0.5664   -0.5381
-0.5375   -0.5073
-0.5038   -0.4714
-0.4663   -0.4299
-0.4155   -0.3761
-0.3602   -0.3156
-0.2887   -0.2386
-0.2039   -0.1475
-0.0984   -0.0333
 0.0394    0.1112
 0.2069    0.2871
 0.4121    0.4943
 0.6585    0.7325
 0.8707    0.9171
 0.9741    0.9930
 0.9998    0.9948
 0.9786    0.9478
 0.8843    0.8255
 0.6825    0.6016
 0.3869    0.2904
-0.0339   -0.1213
-0.0738   -0.1712
-0.0475   -0.1118
-0.0278   -0.0840
-0.0072   -0.0534
 0.0094   -0.0297
 0.0180   -0.0151
 0.0260   -0.0034
 0.0320    0.0058
 0.0365    0.0128
 0.0400    0.0183
 0.0434    0.0233
 0.0469    0.0280
 0.0476    0.0307
 0.0556    0.0390
 0.0665    0.0508
 0.0842    0.0684
 0.1062    0.0896
 0.1301    0.1119
 0.1552    0.1328
 0.1809    0.1502
 0.2073    0.1642
 0.2325    0.2055
 0.2561    0.2482
 0.2562    0.2471
 0.2202    0.2111
 0.2093    0.1945
 0.2034    0.1836
 0.2011    0.1764
 0.2061    0.1740
 0.1992    0.1618
 0.1823    0.1414
 0.1569    0.1163
 0.1562    0.1085
-0.0322    0.0663
 0.5606    0.2843


Reynolds =  900000   Mach =    0  NCrit = 9.0
Alpha,Cd,Cl,Cm,XTr1,XTr2,TEHMom,Cpmn
 -1.000       0.005     0.407    -0.121     0.832     0.525    0.0000  -0.6479
 Cpi          Cpv
-----------------
 0.5595    0.2812
-0.0878    0.1733
 0.0944    0.1513
 0.0596    0.1167
 0.0595    0.0955
 0.0455    0.0729
 0.0148    0.0416
-0.0363   -0.0032
-0.1069   -0.0612
-0.1505   -0.1153
-0.2090   -0.2427
-0.3147   -0.3468
-0.3619   -0.3631
-0.3895   -0.3843
-0.4259   -0.4123
-0.4599   -0.4443
-0.4914   -0.4756
-0.5193   -0.5038
-0.5430   -0.5276
-0.5608   -0.5451
-0.5693   -0.5530
-0.5637   -0.5477
-0.5508   -0.5339
-0.5226   -0.5062
-0.4933   -0.4763
-0.4591   -0.4411
-0.4180   -0.3989
-0.3703   -0.3500
-0.3163   -0.2936
-0.2473   -0.2230
-0.1702   -0.1430
-0.0744   -0.0441
 0.0383    0.0712
 0.1741    0.2116
 0.3401    0.3788
 0.5283    0.5688
 0.7314    0.7669
 0.9159    0.9387
 0.9989    0.9999
 0.9638    0.9442
 0.8537    0.8152
 0.7083    0.6527
 0.4989    0.4327
 0.1898    0.1180
-0.1425   -0.2171
-0.6078   -0.6479
-0.4962   -0.5771
-0.3628   -0.4150
-0.2734   -0.3168
-0.2035   -0.2403
-0.1513   -0.1821
-0.1168   -0.1416
-0.0886   -0.1104
-0.0666   -0.0860
-0.0493   -0.0667
-0.0353   -0.0511
-0.0230   -0.0378
-0.0121   -0.0261
-0.0050   -0.0173
 0.0087   -0.0040
 0.0248    0.0118
 0.0473    0.0315
 0.0736    0.0513
 0.1015    0.0851
 0.1300    0.1276
 0.1587    0.1548
 0.1878    0.1802
 0.2153    0.2044
 0.2410    0.2256
 0.2425    0.2252
 0.2071    0.1946
 0.1974    0.1821
 0.1927    0.1747
 0.1915    0.1705
 0.1977    0.1704
 0.1917    0.1613
 0.1757    0.1453
 0.1511    0.1268
 0.1514    0.1249
-0.0368    0.1029
 0.5595    0.2812


Reynolds =  900000   Mach =    0  NCrit = 9.0
Alpha,Cd,Cl,Cm,XTr1,XTr2,TEHMom,Cpmn
 -2.000       0.007     0.314    -0.125     0.852     0.032    0.0000  -1.1954
 Cpi          Cpv
-----------------
 0.5586    0.2714
-0.0879    0.1407
 0.0955    0.1256
 0.0619    0.0947
 0.0629    0.0794
 0.0501    0.0619
 0.0207    0.0351
-0.0286   -0.0051
-0.0971   -0.0591
-0.1385   -0.1290
-0.1943   -0.3108
-0.2963   -0.3213
-0.3401   -0.3386
-0.3643   -0.3624
-0.3967   -0.3917
-0.4265   -0.4214
-0.4531   -0.4485
-0.4758   -0.4717
-0.4937   -0.4898
-0.5051   -0.5012
-0.5068   -0.5026
-0.4940   -0.4905
-0.4735   -0.4694
-0.4373   -0.4342
-0.3990   -0.3960
-0.3548   -0.3516
-0.3025   -0.2992
-0.2421   -0.2390
-0.1737   -0.1698
-0.0890   -0.0855
 0.0061    0.0106
 0.1211    0.1249
 0.2539    0.2591
 0.4083    0.4119
 0.5848    0.5900
 0.7668    0.7692
 0.9272    0.9294
 1.0000    1.0000
 0.9143    0.9151
 0.7072    0.7091
 0.3950    0.4171
 0.1284    0.1412
-0.1567   -0.1393
-0.5290   -0.5001
-0.8344   -0.8070
-1.3067   -1.1954
-0.9875   -0.9783
-0.7185   -0.7631
-0.5445   -0.6358
-0.4164   -0.4652
-0.3233   -0.3033
-0.2596   -0.2491
-0.2088   -0.2056
-0.1693   -0.1686
-0.1381   -0.1388
-0.1127   -0.1142
-0.0910   -0.0929
-0.0721   -0.0743
-0.0585   -0.0602
-0.0386   -0.0407
-0.0172   -0.0193
 0.0103    0.0075
 0.0411    0.0375
 0.0729    0.0685
 0.1049    0.0994
 0.1368    0.1299
 0.1685    0.1595
 0.1985    0.1862
 0.2262    0.2081
 0.2291    0.2102
 0.1945    0.1875
 0.1859    0.1783
 0.1824    0.1736
 0.1824    0.1721
 0.1897    0.1737
 0.1847    0.1689
 0.1695    0.1599
 0.1457    0.1517
 0.1471    0.1570
-0.0407    0.1568
 0.5586    0.2714


